(PID.TID 0000.0001) 
(PID.TID 0000.0001) // ======================================================
(PID.TID 0000.0001) //                      MITgcm UV
(PID.TID 0000.0001) //                      =========
(PID.TID 0000.0001) // ======================================================
(PID.TID 0000.0001) // execution environment starting up...
(PID.TID 0000.0001) 
(PID.TID 0000.0001) // MITgcmUV version:  checkpoint69n
(PID.TID 0000.0001) // Build user:        joey
(PID.TID 0000.0001) // Build host:        ubuntu
(PID.TID 0000.0001) // Build date:        Mon Jun 29 02:13:35 PM BST 2026
(PID.TID 0000.0001) 
(PID.TID 0000.0001) // =======================================================
(PID.TID 0000.0001) // Execution Environment parameter file "eedata"
(PID.TID 0000.0001) // =======================================================
(PID.TID 0000.0001) ># Example "eedata" file
(PID.TID 0000.0001) ># Lines beginning "#" are comments
(PID.TID 0000.0001) ># nTx - No. threads per process in X
(PID.TID 0000.0001) ># nTy - No. threads per process in Y
(PID.TID 0000.0001) > &EEPARMS
(PID.TID 0000.0001) > /
(PID.TID 0000.0001) ># Note: Some systems use & as the
(PID.TID 0000.0001) ># namelist terminator. Other systems
(PID.TID 0000.0001) ># use a / character (as shown here).
(PID.TID 0000.0001) 
(PID.TID 0000.0001) // =======================================================
(PID.TID 0000.0001) // Computational Grid Specification ( see files "SIZE.h" )
(PID.TID 0000.0001) //                                  ( and "eedata"       )
(PID.TID 0000.0001) // =======================================================
(PID.TID 0000.0001)      nPx =    1 ; /* No. processes in X */
(PID.TID 0000.0001)      nPy =    1 ; /* No. processes in Y */
(PID.TID 0000.0001)      nSx =    1 ; /* No. tiles in X per process */
(PID.TID 0000.0001)      nSy =    1 ; /* No. tiles in Y per process */
(PID.TID 0000.0001)      sNx =  320 ; /* Tile size in X */
(PID.TID 0000.0001)      sNy =    1 ; /* Tile size in Y */
(PID.TID 0000.0001)      OLx =    3 ; /* Tile overlap distance in X */
(PID.TID 0000.0001)      OLy =    3 ; /* Tile overlap distance in Y */
(PID.TID 0000.0001)      nTx =    1 ; /* No. threads in X per process */
(PID.TID 0000.0001)      nTy =    1 ; /* No. threads in Y per process */
(PID.TID 0000.0001)       Nr =   60 ; /* No. levels in the vertical   */
(PID.TID 0000.0001)       Nx =  320 ; /* Total domain size in X ( = nPx*nSx*sNx ) */
(PID.TID 0000.0001)       Ny =    1 ; /* Total domain size in Y ( = nPy*nSy*sNy ) */
(PID.TID 0000.0001)   nTiles =    1 ; /* Total no. tiles per process ( = nSx*nSy ) */
(PID.TID 0000.0001)   nProcs =    1 ; /* Total no. processes ( = nPx*nPy ) */
(PID.TID 0000.0001) nThreads =    1 ; /* Total no. threads per process ( = nTx*nTy ) */
(PID.TID 0000.0001) usingMPI =    F ; /* Flag used to control whether MPI is in use */
(PID.TID 0000.0001)                   /*  note: To execute a program with MPI calls */
(PID.TID 0000.0001)                   /*  it must be launched appropriately e.g     */
(PID.TID 0000.0001)                   /*  "mpirun -np 64 ......"                    */
(PID.TID 0000.0001) useCoupler=   F ; /* Flag used to control communications with   */
(PID.TID 0000.0001)                   /*  other model components, through a coupler */
(PID.TID 0000.0001) useNest2W_parent =    F ;/* Control 2-W Nesting comm */
(PID.TID 0000.0001) useNest2W_child  =    F ;/* Control 2-W Nesting comm */
(PID.TID 0000.0001) debugMode =    F ; /* print debug msg. (sequence of S/R calls)  */
(PID.TID 0000.0001) printMapIncludesZeros=    F ; /* print zeros in Std.Output maps */
(PID.TID 0000.0001) maxLengthPrt1D=   65 /* maxLength of 1D array printed to StdOut */
(PID.TID 0000.0001) 
(PID.TID 0000.0001) // ======================================================
(PID.TID 0000.0001) // Mapping of tiles to threads
(PID.TID 0000.0001) // ======================================================
(PID.TID 0000.0001) // -o- Thread   1, tiles (   1:   1,   1:   1)
(PID.TID 0000.0001) 
(PID.TID 0000.0001) // ======================================================
(PID.TID 0000.0001) // Tile <-> Tile connectvity table
(PID.TID 0000.0001) // ======================================================
(PID.TID 0000.0001) // Tile number: 000001 (process no. = 000000)
(PID.TID 0000.0001) //        WEST: Tile = 000001, Process = 000000, Comm = put
(PID.TID 0000.0001) //                bi = 000001, bj = 000001
(PID.TID 0000.0001) //        EAST: Tile = 000001, Process = 000000, Comm = put
(PID.TID 0000.0001) //                bi = 000001, bj = 000001
(PID.TID 0000.0001) //       SOUTH: Tile = 000001, Process = 000000, Comm = put
(PID.TID 0000.0001) //                bi = 000001, bj = 000001
(PID.TID 0000.0001) //       NORTH: Tile = 000001, Process = 000000, Comm = put
(PID.TID 0000.0001) //                bi = 000001, bj = 000001
(PID.TID 0000.0001) 
(PID.TID 0000.0001)  INI_PARMS: opening model parameter file "data"
(PID.TID 0000.0001)  OPEN_COPY_DATA_FILE: opening file data
(PID.TID 0000.0001) // =======================================================
(PID.TID 0000.0001) // Parameter file "data"
(PID.TID 0000.0001) // =======================================================
(PID.TID 0000.0001) ># ====================
(PID.TID 0000.0001) ># | Model parameters |
(PID.TID 0000.0001) ># ====================
(PID.TID 0000.0001) >#
(PID.TID 0000.0001) ># Continuous equation parameters
(PID.TID 0000.0001) > &PARM01
(PID.TID 0000.0001) > tRef=60*1.,
(PID.TID 0000.0001) > sRef=60*35.,
(PID.TID 0000.0001) > viscA4=0.0E4,
(PID.TID 0000.0001) > viscAh=1.E-2,
(PID.TID 0000.0001) > viscAz=1.E-3,
(PID.TID 0000.0001) > bottomDragLinear=0.E-4,
(PID.TID 0000.0001) > no_slip_sides=.TRUE.,
(PID.TID 0000.0001) > no_slip_bottom=.TRUE.,
(PID.TID 0000.0001) > diffK4T=0.E4,
(PID.TID 0000.0001) > diffKhT=0.E-2,
(PID.TID 0000.0001) > diffKzT=0.E-3,
(PID.TID 0000.0001) > diffK4S=0.E4,
(PID.TID 0000.0001) > diffKhS=1.E-2,
(PID.TID 0000.0001) > diffKzS=1.E-5,
(PID.TID 0000.0001) > tempAdvScheme=33,
(PID.TID 0000.0001) > f0=0.e-4,
(PID.TID 0000.0001) > beta=0.E-11,
(PID.TID 0000.0001) > eosType='LINEAR',
(PID.TID 0000.0001) > tAlpha=2.E-4,
(PID.TID 0000.0001) > sBeta =0.E-4,
(PID.TID 0000.0001) > rigidLid=.FALSE.,
(PID.TID 0000.0001) > implicitFreeSurface=.TRUE.,
(PID.TID 0000.0001) > hFacMin=0.05,
(PID.TID 0000.0001) > nonHydrostatic=.TRUE.,
(PID.TID 0000.0001) > readBinaryPrec=64,
(PID.TID 0000.0001) >#- not safe to use globalFiles in multi-processors runs
(PID.TID 0000.0001) >#globalFiles=.TRUE.,
(PID.TID 0000.0001) > plotLevel=0,
(PID.TID 0000.0001) > staggerTimeStep=.TRUE.,
(PID.TID 0000.0001) > /
(PID.TID 0000.0001) >
(PID.TID 0000.0001) ># Elliptic solver parameters
(PID.TID 0000.0001) > &PARM02
(PID.TID 0000.0001) > cg2dMaxIters=300,
(PID.TID 0000.0001) > cg2dTargetResidual=1.E-13,
(PID.TID 0000.0001) > cg3dMaxIters=20,
(PID.TID 0000.0001) > cg3dTargetResidual=1.E-8,
(PID.TID 0000.0001) > /
(PID.TID 0000.0001) >
(PID.TID 0000.0001) ># Time stepping parameters
(PID.TID 0000.0001) > &PARM03
(PID.TID 0000.0001) > nIter0=0,
(PID.TID 0000.0001) >#nTimeSteps=20,
(PID.TID 0000.0001) > nTimeSteps=4320,
(PID.TID 0000.0001) > deltaT=20.0,
(PID.TID 0000.0001) > abEps=0.01,
(PID.TID 0000.0001) > pChkptFreq=0.0,
(PID.TID 0000.0001) > chkptFreq=0.0,
(PID.TID 0000.0001) > dumpFreq=600.0,
(PID.TID 0000.0001) > monitorSelect=2,
(PID.TID 0000.0001) > monitorFreq=600.,
(PID.TID 0000.0001) > /
(PID.TID 0000.0001) >
(PID.TID 0000.0001) ># Gridding parameters
(PID.TID 0000.0001) > &PARM04
(PID.TID 0000.0001) > usingCartesianGrid=.TRUE.,
(PID.TID 0000.0001) > delXfile='dx.bin',
(PID.TID 0000.0001) > dYspacing=200.,
(PID.TID 0000.0001) > delZ=60*3.33333333333333333333333,
(PID.TID 0000.0001) > /
(PID.TID 0000.0001) >
(PID.TID 0000.0001) ># Input datasets
(PID.TID 0000.0001) > &PARM05
(PID.TID 0000.0001) > bathyFile      ='topog.slope',
(PID.TID 0000.0001) > hydrogThetaFile='T.init',
(PID.TID 0000.0001) > surfQnetFile   ='Qnet.forcing',
(PID.TID 0000.0001) >#hydrogThetaFile='T.pickup',
(PID.TID 0000.0001) >#uVelInitFile   ='U.pickup',
(PID.TID 0000.0001) >#pSurfInitFile  ='Eta.pickup',
(PID.TID 0000.0001) > /
(PID.TID 0000.0001) 
(PID.TID 0000.0001)  INI_PARMS ; starts to read PARM01
(PID.TID 0000.0001)  INI_PARMS ; read PARM01 : OK
(PID.TID 0000.0001)  INI_PARMS ; starts to read PARM02
(PID.TID 0000.0001)  INI_PARMS ; read PARM02 : OK
(PID.TID 0000.0001)  INI_PARMS ; starts to read PARM03
(PID.TID 0000.0001)  INI_PARMS ; read PARM03 : OK
(PID.TID 0000.0001)  INI_PARMS ; starts to read PARM04
(PID.TID 0000.0001)  INI_PARMS ; read PARM04 : OK
(PID.TID 0000.0001)  INI_PARMS ; starts to read PARM05
(PID.TID 0000.0001)  INI_PARMS ; read PARM05 : OK
(PID.TID 0000.0001)  INI_PARMS: finished reading file "data"
(PID.TID 0000.0001)  PACKAGES_BOOT: opening data.pkg
(PID.TID 0000.0001)  OPEN_COPY_DATA_FILE: opening file data.pkg
(PID.TID 0000.0001) // =======================================================
(PID.TID 0000.0001) // Parameter file "data.pkg"
(PID.TID 0000.0001) // =======================================================
(PID.TID 0000.0001) ># Packages
(PID.TID 0000.0001) > &PACKAGES
(PID.TID 0000.0001) > useOBCS=.TRUE.,
(PID.TID 0000.0001) > useMNC=.TRUE.,
(PID.TID 0000.0001) > /
(PID.TID 0000.0001) 
(PID.TID 0000.0001)  PACKAGES_BOOT: finished reading data.pkg
(PID.TID 0000.0001)  PACKAGES_BOOT: On/Off package Summary
 --------  pkgs with a standard "usePKG" On/Off switch in "data.pkg":  --------
 pkg/obcs                 compiled   and   used ( useOBCS                  = T )
 pkg/mnc                  compiled   and   used ( useMNC                   = T )
 -------- pkgs without standard "usePKG" On/Off switch in "data.pkg":  --------
 pkg/generic_advdiff      compiled   and   used ( useGAD                   = T )
 pkg/mom_common           compiled   and   used ( momStepping              = T )
 pkg/mom_vecinv           compiled but not used ( +vectorInvariantMomentum = F )
 pkg/mom_fluxform         compiled   and   used ( & not vectorInvariantMom = T )
 pkg/monitor              compiled   and   used ( monitorFreq > 0.         = T )
 pkg/debug                compiled but not used ( debugMode                = F )
 pkg/rw                   compiled   and   used
 pkg/mdsio                compiled   and   used
(PID.TID 0000.0001)  PACKAGES_BOOT: End of package Summary
(PID.TID 0000.0001) 
(PID.TID 0000.0001)  MNC_READPARMS: opening file 'data.mnc'
(PID.TID 0000.0001)  OPEN_COPY_DATA_FILE: opening file data.mnc
(PID.TID 0000.0001) // =======================================================
(PID.TID 0000.0001) // Parameter file "data.mnc"
(PID.TID 0000.0001) // =======================================================
(PID.TID 0000.0001) ># pkg/mnc inputs
(PID.TID 0000.0001) > &MNC_01
(PID.TID 0000.0001) > monitor_mnc=.FALSE.,
(PID.TID 0000.0001) > mnc_use_outdir=.TRUE.,
(PID.TID 0000.0001) > mnc_filefreq=3600,
(PID.TID 0000.0001) > /
(PID.TID 0000.0001) >
(PID.TID 0000.0001) 
(PID.TID 0000.0001)  MNC_READPARMS: finished reading data.mnc
(PID.TID 0000.0001)  OBCS_READPARMS: opening data.obcs
(PID.TID 0000.0001)  OPEN_COPY_DATA_FILE: opening file data.obcs
(PID.TID 0000.0001) // =======================================================
(PID.TID 0000.0001) // Parameter file "data.obcs"
(PID.TID 0000.0001) // =======================================================
(PID.TID 0000.0001) ># Open-boundaries
(PID.TID 0000.0001) > &OBCS_PARM01
(PID.TID 0000.0001) > OB_Ieast=1*-1,
(PID.TID 0000.0001) > useOrlanskiEast=.TRUE.,
(PID.TID 0000.0001) > useOBCSbalance=.TRUE.,
(PID.TID 0000.0001) > OBCS_monitorFreq=400.,
(PID.TID 0000.0001) > /
(PID.TID 0000.0001) >
(PID.TID 0000.0001) ># Orlanski parameters
(PID.TID 0000.0001) > &OBCS_PARM02
(PID.TID 0000.0001) > Cmax=0.45,
(PID.TID 0000.0001) > cVelTimeScale=1000.,
(PID.TID 0000.0001) > /
(PID.TID 0000.0001) 
(PID.TID 0000.0001)  OBCS_READPARMS: finished reading data.obcs
(PID.TID 0000.0001)  OB_indexUnset = /* unset OB index value (i.e. no OB) */
(PID.TID 0000.0001)                       0
(PID.TID 0000.0001)     ;
(PID.TID 0000.0001)  Northern OB global indices : OB_Jnorth =
(PID.TID 0000.0001)   320 @        0                            /* I =  1:320 */
(PID.TID 0000.0001)  Southern OB global indices : OB_Jsouth =
(PID.TID 0000.0001)   320 @        0                            /* I =  1:320 */
(PID.TID 0000.0001)  Eastern  OB global indices : OB_Ieast =
(PID.TID 0000.0001)                     320                     /* J =  1 */
(PID.TID 0000.0001)  Western  OB global indices : OB_Iwest =
(PID.TID 0000.0001)                       0                     /* J =  1 */
(PID.TID 0000.0001) 
(PID.TID 0000.0001) SET_PARMS: done
(PID.TID 0000.0001)  MDS_READVEC_LOC: open file: dx.bin
(PID.TID 0000.0001) S/R LOAD_GRID_SPACING: delX loaded from file: dx.bin
(PID.TID 0000.0001) Enter INI_VERTICAL_GRID: setInterFDr=    T ; setCenterDr=    F
(PID.TID 0000.0001) %MON XC_max                       =   6.4030118978311E+03
(PID.TID 0000.0001) %MON XC_min                       =   6.6667527892151E+00
(PID.TID 0000.0001) %MON XC_mean                      =   2.4575819181463E+03
(PID.TID 0000.0001) %MON XC_sd                        =   1.7058938715763E+03
(PID.TID 0000.0001) %MON XG_max                       =   6.3832517139640E+03
(PID.TID 0000.0001) %MON XG_min                       =   0.0000000000000E+00
(PID.TID 0000.0001) %MON XG_mean                      =   2.4475463367687E+03
(PID.TID 0000.0001) %MON XG_sd                        =   1.7014602049606E+03
(PID.TID 0000.0001) %MON DXC_max                      =   3.9508304374678E+01
(PID.TID 0000.0001) %MON DXC_min                      =   1.3333509993998E+01
(PID.TID 0000.0001) %MON DXC_mean                     =   2.0071162755307E+01
(PID.TID 0000.0001) %MON DXC_sd                       =   9.4906528979627E+00
(PID.TID 0000.0001) %MON DXF_max                      =   3.9520367734344E+01
(PID.TID 0000.0001) %MON DXF_min                      =   1.3333505578430E+01
(PID.TID 0000.0001) %MON DXF_mean                     =   2.0071162755307E+01
(PID.TID 0000.0001) %MON DXF_sd                       =   9.5190787885357E+00
(PID.TID 0000.0001) %MON DXG_max                      =   3.9520367734344E+01
(PID.TID 0000.0001) %MON DXG_min                      =   1.3333505578430E+01
(PID.TID 0000.0001) %MON DXG_mean                     =   2.0071162755307E+01
(PID.TID 0000.0001) %MON DXG_sd                       =   9.5190787885357E+00
(PID.TID 0000.0001) %MON DXV_max                      =   3.9508304374678E+01
(PID.TID 0000.0001) %MON DXV_min                      =   1.3333509993998E+01
(PID.TID 0000.0001) %MON DXV_mean                     =   2.0071162755307E+01
(PID.TID 0000.0001) %MON DXV_sd                       =   9.4906528979627E+00
(PID.TID 0000.0001) %MON YC_max                       =   1.0000000000000E+02
(PID.TID 0000.0001) %MON YC_min                       =   1.0000000000000E+02
(PID.TID 0000.0001) %MON YC_mean                      =   1.0000000000000E+02
(PID.TID 0000.0001) %MON YC_sd                        =   0.0000000000000E+00
(PID.TID 0000.0001) %MON YG_max                       =   0.0000000000000E+00
(PID.TID 0000.0001) %MON YG_min                       =   0.0000000000000E+00
(PID.TID 0000.0001) %MON YG_mean                      =   0.0000000000000E+00
(PID.TID 0000.0001) %MON YG_sd                        =   0.0000000000000E+00
(PID.TID 0000.0001) %MON DYC_max                      =   2.0000000000000E+02
(PID.TID 0000.0001) %MON DYC_min                      =   2.0000000000000E+02
(PID.TID 0000.0001) %MON DYC_mean                     =   2.0000000000000E+02
(PID.TID 0000.0001) %MON DYC_sd                       =   0.0000000000000E+00
(PID.TID 0000.0001) %MON DYF_max                      =   2.0000000000000E+02
(PID.TID 0000.0001) %MON DYF_min                      =   2.0000000000000E+02
(PID.TID 0000.0001) %MON DYF_mean                     =   2.0000000000000E+02
(PID.TID 0000.0001) %MON DYF_sd                       =   0.0000000000000E+00
(PID.TID 0000.0001) %MON DYG_max                      =   2.0000000000000E+02
(PID.TID 0000.0001) %MON DYG_min                      =   2.0000000000000E+02
(PID.TID 0000.0001) %MON DYG_mean                     =   2.0000000000000E+02
(PID.TID 0000.0001) %MON DYG_sd                       =   0.0000000000000E+00
(PID.TID 0000.0001) %MON DYU_max                      =   2.0000000000000E+02
(PID.TID 0000.0001) %MON DYU_min                      =   2.0000000000000E+02
(PID.TID 0000.0001) %MON DYU_mean                     =   2.0000000000000E+02
(PID.TID 0000.0001) %MON DYU_sd                       =   0.0000000000000E+00
(PID.TID 0000.0001) %MON RA_max                       =   7.9040735468688E+03
(PID.TID 0000.0001) %MON RA_min                       =   2.6667011156861E+03
(PID.TID 0000.0001) %MON RA_mean                      =   4.0142325510614E+03
(PID.TID 0000.0001) %MON RA_sd                        =   1.9038157577071E+03
(PID.TID 0000.0001) %MON RAW_max                      =   7.9016608749357E+03
(PID.TID 0000.0001) %MON RAW_min                      =   2.6667019987996E+03
(PID.TID 0000.0001) %MON RAW_mean                     =   4.0142325510614E+03
(PID.TID 0000.0001) %MON RAW_sd                       =   1.8981305795925E+03
(PID.TID 0000.0001) %MON RAS_max                      =   7.9040735468688E+03
(PID.TID 0000.0001) %MON RAS_min                      =   2.6667011156861E+03
(PID.TID 0000.0001) %MON RAS_mean                     =   4.0142325510614E+03
(PID.TID 0000.0001) %MON RAS_sd                       =   1.9038157577071E+03
(PID.TID 0000.0001) %MON RAZ_max                      =   7.9016608749357E+03
(PID.TID 0000.0001) %MON RAZ_min                      =   2.6667019987996E+03
(PID.TID 0000.0001) %MON RAZ_mean                     =   4.0142325510614E+03
(PID.TID 0000.0001) %MON RAZ_sd                       =   1.8981305795925E+03
(PID.TID 0000.0001) %MON AngleCS_max                  =   1.0000000000000E+00
(PID.TID 0000.0001) %MON AngleCS_min                  =   1.0000000000000E+00
(PID.TID 0000.0001) %MON AngleCS_mean                 =   1.0000000000000E+00
(PID.TID 0000.0001) %MON AngleCS_sd                   =   0.0000000000000E+00
(PID.TID 0000.0001) %MON AngleSN_max                  =   0.0000000000000E+00
(PID.TID 0000.0001) %MON AngleSN_min                  =   0.0000000000000E+00
(PID.TID 0000.0001) %MON AngleSN_mean                 =   0.0000000000000E+00
(PID.TID 0000.0001) %MON AngleSN_sd                   =   0.0000000000000E+00
(PID.TID 0000.0001)  MDS_READ_FIELD: opening global file: topog.slope
(PID.TID 0000.0001) GAD_INIT_FIXED: GAD_OlMinSize=  2  0  1
(PID.TID 0000.0001) 
(PID.TID 0000.0001) // ===================================
(PID.TID 0000.0001) // GAD parameters :
(PID.TID 0000.0001) // ===================================
(PID.TID 0000.0001) tempAdvScheme =   /* Temp. Horiz.Advection scheme selector */
(PID.TID 0000.0001)                      33
(PID.TID 0000.0001)     ;
(PID.TID 0000.0001) tempVertAdvScheme =   /* Temp. Vert. Advection scheme selector */
(PID.TID 0000.0001)                      33
(PID.TID 0000.0001)     ;
(PID.TID 0000.0001) tempMultiDimAdvec =   /* use Muti-Dim Advec method for Temp */
(PID.TID 0000.0001)                   T
(PID.TID 0000.0001)     ;
(PID.TID 0000.0001) tempSOM_Advection = /* use 2nd Order Moment Advection for Temp */
(PID.TID 0000.0001)                   F
(PID.TID 0000.0001)     ;
(PID.TID 0000.0001) AdamsBashforthGt = /* apply Adams-Bashforth extrapolation on Gt */
(PID.TID 0000.0001)                   F
(PID.TID 0000.0001)     ;
(PID.TID 0000.0001) AdamsBashforth_T = /* apply Adams-Bashforth extrapolation on Temp */
(PID.TID 0000.0001)                   F
(PID.TID 0000.0001)     ;
(PID.TID 0000.0001) saltAdvScheme =   /* Salt. Horiz.advection scheme selector */
(PID.TID 0000.0001)                       2
(PID.TID 0000.0001)     ;
(PID.TID 0000.0001) saltVertAdvScheme =   /* Salt. Vert. Advection scheme selector */
(PID.TID 0000.0001)                       2
(PID.TID 0000.0001)     ;
(PID.TID 0000.0001) saltMultiDimAdvec =   /* use Muti-Dim Advec method for Salt */
(PID.TID 0000.0001)                   F
(PID.TID 0000.0001)     ;
(PID.TID 0000.0001) saltSOM_Advection = /* use 2nd Order Moment Advection for Salt */
(PID.TID 0000.0001)                   F
(PID.TID 0000.0001)     ;
(PID.TID 0000.0001) AdamsBashforthGs = /* apply Adams-Bashforth extrapolation on Gs */
(PID.TID 0000.0001)                   T
(PID.TID 0000.0001)     ;
(PID.TID 0000.0001) AdamsBashforth_S = /* apply Adams-Bashforth extrapolation on Salt */
(PID.TID 0000.0001)                   F
(PID.TID 0000.0001)     ;
(PID.TID 0000.0001) // ===================================
(PID.TID 0000.0001) %MON fCori_max                    =   0.0000000000000E+00
(PID.TID 0000.0001) %MON fCori_min                    =   0.0000000000000E+00
(PID.TID 0000.0001) %MON fCori_mean                   =   0.0000000000000E+00
(PID.TID 0000.0001) %MON fCori_sd                     =   0.0000000000000E+00
(PID.TID 0000.0001) %MON fCoriG_max                   =   0.0000000000000E+00
(PID.TID 0000.0001) %MON fCoriG_min                   =   0.0000000000000E+00
(PID.TID 0000.0001) %MON fCoriG_mean                  =   0.0000000000000E+00
(PID.TID 0000.0001) %MON fCoriG_sd                    =   0.0000000000000E+00
(PID.TID 0000.0001) %MON fCoriCos_max                 =   0.0000000000000E+00
(PID.TID 0000.0001) %MON fCoriCos_min                 =   0.0000000000000E+00
(PID.TID 0000.0001) %MON fCoriCos_mean                =   0.0000000000000E+00
(PID.TID 0000.0001) %MON fCoriCos_sd                  =   0.0000000000000E+00
(PID.TID 0000.0001) INI_CG2D: CG2D normalisation factor =  3.8311188275726063E-04
(PID.TID 0000.0001) 
(PID.TID 0000.0001) INI_CG3D: CG3D normalisation factor =  4.2198108575273687E-04
(PID.TID 0000.0001) 
(PID.TID 0000.0001) // =======================================================
(PID.TID 0000.0001) // Model configuration
(PID.TID 0000.0001) // =======================================================
(PID.TID 0000.0001) //
(PID.TID 0000.0001) // "Physical" paramters ( PARM01 in namelist )
(PID.TID 0000.0001) //
(PID.TID 0000.0001) buoyancyRelation = /* Type of relation to get Buoyancy */
(PID.TID 0000.0001)               'OCEANIC'
(PID.TID 0000.0001)     ;
(PID.TID 0000.0001) fluidIsAir   =  /* fluid major constituent is Air */
(PID.TID 0000.0001)                   F
(PID.TID 0000.0001)     ;
(PID.TID 0000.0001) fluidIsWater =  /* fluid major constituent is Water */
(PID.TID 0000.0001)                   T
(PID.TID 0000.0001)     ;
(PID.TID 0000.0001) usingPCoords =  /* use p (or p*) vertical coordinate */
(PID.TID 0000.0001)                   F
(PID.TID 0000.0001)     ;
(PID.TID 0000.0001) usingZCoords =  /* use z (or z*) vertical coordinate */
(PID.TID 0000.0001)                   T
(PID.TID 0000.0001)     ;
(PID.TID 0000.0001) tRef =   /* Reference temperature profile ( oC or K ) */
(PID.TID 0000.0001)    60 @  1.000000000000000E+00              /* K =  1: 60 */
(PID.TID 0000.0001)     ;
(PID.TID 0000.0001) sRef =   /* Reference salinity profile ( g/kg ) */
(PID.TID 0000.0001)    60 @  3.500000000000000E+01              /* K =  1: 60 */
(PID.TID 0000.0001)     ;
(PID.TID 0000.0001) rhoRef =   /* Density vertical profile from (Ref,sRef)( kg/m^3 ) */
(PID.TID 0000.0001)    60 @  9.998000000000000E+02              /* K =  1: 60 */
(PID.TID 0000.0001)     ;
(PID.TID 0000.0001) dBdrRef = /* Vertical grad. of reference buoyancy [(m/s/r)^2] */
(PID.TID 0000.0001)    60 @  0.000000000000000E+00              /* K =  1: 60 */
(PID.TID 0000.0001)     ;
(PID.TID 0000.0001) useStrainTensionVisc= /* Use StrainTension Form of Viscous Operator */
(PID.TID 0000.0001)                   F
(PID.TID 0000.0001)     ;
(PID.TID 0000.0001) useVariableVisc = /* Use variable horizontal viscosity */
(PID.TID 0000.0001)                   F
(PID.TID 0000.0001)     ;
(PID.TID 0000.0001) useHarmonicVisc = /* Use harmonic horizontal viscosity */
(PID.TID 0000.0001)                   T
(PID.TID 0000.0001)     ;
(PID.TID 0000.0001) useBiharmonicVisc= /* Use biharmonic horiz.  viscosity */
(PID.TID 0000.0001)                   F
(PID.TID 0000.0001)     ;
(PID.TID 0000.0001) useSmag3D = /* Use isotropic 3-D Smagorinsky viscosity */
(PID.TID 0000.0001)                   F
(PID.TID 0000.0001)     ;
(PID.TID 0000.0001) viscAh  =   /* Lateral harmonic viscosity ( m^2/s ) */
(PID.TID 0000.0001)                 1.000000000000000E-02
(PID.TID 0000.0001)     ;
(PID.TID 0000.0001) viscAhW =   /* Lateral harmonic viscosity in W eq. ( m^2/s ) */
(PID.TID 0000.0001)                 1.000000000000000E-02
(PID.TID 0000.0001)     ;
(PID.TID 0000.0001) viscA4  =   /* Lateral biharmonic viscosity ( m^4/s ) */
(PID.TID 0000.0001)                 0.000000000000000E+00
(PID.TID 0000.0001)     ;
(PID.TID 0000.0001) viscA4W =   /* Lateral biharmonic viscosity in W eq. ( m^2/s ) */
(PID.TID 0000.0001)                 0.000000000000000E+00
(PID.TID 0000.0001)     ;
(PID.TID 0000.0001) no_slip_sides =  /* Viscous BCs: No-slip sides */
(PID.TID 0000.0001)                   T
(PID.TID 0000.0001)     ;
(PID.TID 0000.0001) sideDragFactor = /* side-drag scaling factor (non-dim) */
(PID.TID 0000.0001)                 2.000000000000000E+00
(PID.TID 0000.0001)     ;
(PID.TID 0000.0001) viscArNr = /* vertical profile of vertical viscosity ( m^2/s )*/
(PID.TID 0000.0001)    60 @  1.000000000000000E-03              /* K =  1: 60 */
(PID.TID 0000.0001)     ;
(PID.TID 0000.0001) no_slip_bottom =  /* Viscous BCs: No-slip bottom */
(PID.TID 0000.0001)                   T
(PID.TID 0000.0001)     ;
(PID.TID 0000.0001) bottomVisc_pCell = /* Partial-cell in bottom Visc. BC */
(PID.TID 0000.0001)                   F
(PID.TID 0000.0001)     ;
(PID.TID 0000.0001) bottomDragLinear = /* linear bottom-drag coefficient ( m/s ) */
(PID.TID 0000.0001)                 0.000000000000000E+00
(PID.TID 0000.0001)     ;
(PID.TID 0000.0001) bottomDragQuadratic = /* quadratic bottom-drag coefficient (-) */
(PID.TID 0000.0001)                 0.000000000000000E+00
(PID.TID 0000.0001)     ;
(PID.TID 0000.0001) zRoughBot = /* roughness length for bottom friction (m) */
(PID.TID 0000.0001)                 0.000000000000000E+00
(PID.TID 0000.0001)     ;
(PID.TID 0000.0001) selectBotDragQuadr = /* select quadratic bottom drag options */
(PID.TID 0000.0001)                      -1
(PID.TID 0000.0001)     ;
(PID.TID 0000.0001) diffKhT =   /* Laplacian diffusion of heat laterally ( m^2/s ) */
(PID.TID 0000.0001)                 0.000000000000000E+00
(PID.TID 0000.0001)     ;
(PID.TID 0000.0001) diffK4T =   /* Biharmonic diffusion of heat laterally ( m^4/s ) */
(PID.TID 0000.0001)                 0.000000000000000E+00
(PID.TID 0000.0001)     ;
(PID.TID 0000.0001) diffKhS =   /* Laplacian diffusion of salt laterally ( m^2/s ) */
(PID.TID 0000.0001)                 1.000000000000000E-02
(PID.TID 0000.0001)     ;
(PID.TID 0000.0001) diffK4S =   /* Biharmonic diffusion of salt laterally ( m^4/s ) */
(PID.TID 0000.0001)                 0.000000000000000E+00
(PID.TID 0000.0001)     ;
(PID.TID 0000.0001) diffKrNrT = /* vertical profile of vertical diffusion of Temp ( m^2/s )*/
(PID.TID 0000.0001)    60 @  0.000000000000000E+00              /* K =  1: 60 */
(PID.TID 0000.0001)     ;
(PID.TID 0000.0001) diffKrNrS = /* vertical profile of vertical diffusion of Salt ( m^2/s )*/
(PID.TID 0000.0001)    60 @  1.000000000000000E-05              /* K =  1: 60 */
(PID.TID 0000.0001)     ;
(PID.TID 0000.0001) diffKrBL79surf = /* Surface diffusion for Bryan and Lewis 79 ( m^2/s ) */
(PID.TID 0000.0001)                 0.000000000000000E+00
(PID.TID 0000.0001)     ;
(PID.TID 0000.0001) diffKrBL79deep = /* Deep diffusion for Bryan and Lewis 1979 ( m^2/s ) */
(PID.TID 0000.0001)                 0.000000000000000E+00
(PID.TID 0000.0001)     ;
(PID.TID 0000.0001) diffKrBL79scl = /* Depth scale for Bryan and Lewis 1979 ( m ) */
(PID.TID 0000.0001)                 2.000000000000000E+02
(PID.TID 0000.0001)     ;
(PID.TID 0000.0001) diffKrBL79Ho = /* Turning depth for Bryan and Lewis 1979 ( m ) */
(PID.TID 0000.0001)                -2.000000000000000E+03
(PID.TID 0000.0001)     ;
(PID.TID 0000.0001) ivdc_kappa = /* Implicit Vertical Diffusivity for Convection ( m^2/s) */
(PID.TID 0000.0001)                 0.000000000000000E+00
(PID.TID 0000.0001)     ;
(PID.TID 0000.0001) hMixCriteria=  /* Criteria for mixed-layer diagnostic */
(PID.TID 0000.0001)                -8.000000000000000E-01
(PID.TID 0000.0001)     ;
(PID.TID 0000.0001) dRhoSmall =  /* Parameter for mixed-layer diagnostic */
(PID.TID 0000.0001)                 1.000000000000000E-06
(PID.TID 0000.0001)     ;
(PID.TID 0000.0001) hMixSmooth=  /* Smoothing parameter for mixed-layer diagnostic */
(PID.TID 0000.0001)                 0.000000000000000E+00
(PID.TID 0000.0001)     ;
(PID.TID 0000.0001) eosType =  /* Type of Equation of State */
(PID.TID 0000.0001)               'LINEAR'
(PID.TID 0000.0001)     ;
(PID.TID 0000.0001) tAlpha = /* Linear EOS thermal expansion coefficient ( 1/oC ) */
(PID.TID 0000.0001)                 2.000000000000000E-04
(PID.TID 0000.0001)     ;
(PID.TID 0000.0001) sBeta  = /* Linear EOS haline contraction coefficient ( 1/(g/kg) ) */
(PID.TID 0000.0001)                 0.000000000000000E+00
(PID.TID 0000.0001)     ;
(PID.TID 0000.0001) rhoNil    = /* Reference density for Linear EOS ( kg/m^3 ) */
(PID.TID 0000.0001)                 9.998000000000000E+02
(PID.TID 0000.0001)     ;
(PID.TID 0000.0001) selectP_inEOS_Zc = /* select pressure to use in EOS (0,1,2,3) */
(PID.TID 0000.0001)                       0
(PID.TID 0000.0001)     0= -g*rhoConst*z ; 1= pRef (from tRef,sRef); 2= Hyd P ; 3= Hyd+NH P
(PID.TID 0000.0001)     ;
(PID.TID 0000.0001) surf_pRef = /* Surface reference pressure ( Pa ) */
(PID.TID 0000.0001)                 1.013250000000000E+05
(PID.TID 0000.0001)     ;
(PID.TID 0000.0001) HeatCapacity_Cp =  /* Specific heat capacity ( J/kg/K ) */
(PID.TID 0000.0001)                 3.994000000000000E+03
(PID.TID 0000.0001)     ;
(PID.TID 0000.0001) celsius2K = /* 0 degree Celsius converted to Kelvin ( K ) */
(PID.TID 0000.0001)                 2.731500000000000E+02
(PID.TID 0000.0001)     ;
(PID.TID 0000.0001) rhoConst  = /* Reference density (Boussinesq)  ( kg/m^3 ) */
(PID.TID 0000.0001)                 9.998000000000000E+02
(PID.TID 0000.0001)     ;
(PID.TID 0000.0001) rhoFacC = /* normalized Reference density @ cell-Center (-) */
(PID.TID 0000.0001)    60 @  1.000000000000000E+00              /* K =  1: 60 */
(PID.TID 0000.0001)     ;
(PID.TID 0000.0001) rhoFacF = /* normalized Reference density @ W-Interface (-) */
(PID.TID 0000.0001)    61 @  1.000000000000000E+00              /* K =  1: 61 */
(PID.TID 0000.0001)     ;
(PID.TID 0000.0001) rhoConstFresh = /* Fresh-water reference density ( kg/m^3 ) */
(PID.TID 0000.0001)                 9.998000000000000E+02
(PID.TID 0000.0001)     ;
(PID.TID 0000.0001) gravity =   /* Gravitational acceleration ( m/s^2 ) */
(PID.TID 0000.0001)                 9.810000000000000E+00
(PID.TID 0000.0001)     ;
(PID.TID 0000.0001) gBaro =   /* Barotropic gravity ( m/s^2 ) */
(PID.TID 0000.0001)                 9.810000000000000E+00
(PID.TID 0000.0001)     ;
(PID.TID 0000.0001) gravFacC = /* gravity factor (vs surf.) @ cell-Center (-) */
(PID.TID 0000.0001)    60 @  1.000000000000000E+00              /* K =  1: 60 */
(PID.TID 0000.0001)     ;
(PID.TID 0000.0001) gravFacF = /* gravity factor (vs surf.) @ W-Interface (-) */
(PID.TID 0000.0001)    61 @  1.000000000000000E+00              /* K =  1: 61 */
(PID.TID 0000.0001)     ;
(PID.TID 0000.0001) rotationPeriod =   /* Rotation Period ( s ) */
(PID.TID 0000.0001)                 8.616400000000000E+04
(PID.TID 0000.0001)     ;
(PID.TID 0000.0001) omega =   /* Angular velocity ( rad/s ) */
(PID.TID 0000.0001)                 7.292123516990375E-05
(PID.TID 0000.0001)     ;
(PID.TID 0000.0001) f0 =   /* Reference coriolis parameter ( 1/s ) */
(PID.TID 0000.0001)                 0.000000000000000E+00
(PID.TID 0000.0001)     ;
(PID.TID 0000.0001) beta =   /* Beta ( 1/(m.s) ) */
(PID.TID 0000.0001)                 0.000000000000000E+00
(PID.TID 0000.0001)     ;
(PID.TID 0000.0001) fPrime =   /* Second coriolis parameter ( 1/s ) */
(PID.TID 0000.0001)                 0.000000000000000E+00
(PID.TID 0000.0001)     ;
(PID.TID 0000.0001) rigidLid =   /* Rigid lid on/off flag */
(PID.TID 0000.0001)                   F
(PID.TID 0000.0001)     ;
(PID.TID 0000.0001) implicitFreeSurface =   /* Implicit free surface on/off flag */
(PID.TID 0000.0001)                   T
(PID.TID 0000.0001)     ;
(PID.TID 0000.0001) freeSurfFac =   /* Implicit free surface factor */
(PID.TID 0000.0001)                 1.000000000000000E+00
(PID.TID 0000.0001)     ;
(PID.TID 0000.0001) implicSurfPress =  /* Surface Pressure implicit factor (0-1) */
(PID.TID 0000.0001)                 1.000000000000000E+00
(PID.TID 0000.0001)     ;
(PID.TID 0000.0001) implicDiv2DFlow =  /* Barot. Flow Div. implicit factor (0-1) */
(PID.TID 0000.0001)                 1.000000000000000E+00
(PID.TID 0000.0001)     ;
(PID.TID 0000.0001) uniformLin_PhiSurf = /* use uniform Bo_surf on/off flag */
(PID.TID 0000.0001)                   T
(PID.TID 0000.0001)     ;
(PID.TID 0000.0001) uniformFreeSurfLev = /* free-surface level-index is uniform */
(PID.TID 0000.0001)                   T
(PID.TID 0000.0001)     ;
(PID.TID 0000.0001) sIceLoadFac =  /* scale factor for sIceLoad (0-1) */
(PID.TID 0000.0001)                 1.000000000000000E+00
(PID.TID 0000.0001)     ;
(PID.TID 0000.0001) hFacMin =   /* minimum partial cell factor (hFac) */
(PID.TID 0000.0001)                 5.000000000000000E-02
(PID.TID 0000.0001)     ;
(PID.TID 0000.0001) hFacMinDr = /* minimum partial cell thickness ( m) */
(PID.TID 0000.0001)                 0.000000000000000E+00
(PID.TID 0000.0001)     ;
(PID.TID 0000.0001) exactConserv = /* Update etaN from continuity Eq on/off flag */
(PID.TID 0000.0001)                   F
(PID.TID 0000.0001)     ;
(PID.TID 0000.0001) linFSConserveTr = /* Tracer correction for Lin Free Surface on/off flag */
(PID.TID 0000.0001)                   F
(PID.TID 0000.0001)     ;
(PID.TID 0000.0001) nonlinFreeSurf = /* Non-linear Free Surf. options (-1,0,1,2,3)*/
(PID.TID 0000.0001)                       0
(PID.TID 0000.0001)      -1,0= Off ; 1,2,3= On, 2=+rescale gU,gV, 3=+update cg2d solv.
(PID.TID 0000.0001)     ;
(PID.TID 0000.0001) hFacInf =   /* lower threshold for hFac (nonlinFreeSurf only)*/
(PID.TID 0000.0001)                 2.000000000000000E-01
(PID.TID 0000.0001)     ;
(PID.TID 0000.0001) hFacSup =   /* upper threshold for hFac (nonlinFreeSurf only)*/
(PID.TID 0000.0001)                 2.000000000000000E+00
(PID.TID 0000.0001)     ;
(PID.TID 0000.0001) select_rStar = /* r* Vertical coord. options (=0 r coord.; >0 uses r*)*/
(PID.TID 0000.0001)                       0
(PID.TID 0000.0001)     ;
(PID.TID 0000.0001) useRealFreshWaterFlux = /* Real Fresh Water Flux on/off flag*/
(PID.TID 0000.0001)                   F
(PID.TID 0000.0001)     ;
(PID.TID 0000.0001) temp_EvPrRn = /* Temp. of Evap/Prec/R (UNSET=use local T)(oC)*/
(PID.TID 0000.0001)                 1.234567000000000E+05
(PID.TID 0000.0001)     ;
(PID.TID 0000.0001) salt_EvPrRn = /* Salin. of Evap/Prec/R (UNSET=use local S)(g/kg)*/
(PID.TID 0000.0001)                 0.000000000000000E+00
(PID.TID 0000.0001)     ;
(PID.TID 0000.0001) selectAddFluid = /* option for mass source/sink of fluid (=0: off) */
(PID.TID 0000.0001)                       0
(PID.TID 0000.0001)     ;
(PID.TID 0000.0001) temp_addMass = /* Temp. of addMass array (UNSET=use local T)(oC)*/
(PID.TID 0000.0001)                 1.234567000000000E+05
(PID.TID 0000.0001)     ;
(PID.TID 0000.0001) salt_addMass = /* Salin. of addMass array (UNSET=use local S)(g/kg)*/
(PID.TID 0000.0001)                 0.000000000000000E+00
(PID.TID 0000.0001)     ;
(PID.TID 0000.0001) convertFW2Salt = /* convert F.W. Flux to Salt Flux (-1=use local S)(g/kg)*/
(PID.TID 0000.0001)                 3.500000000000000E+01
(PID.TID 0000.0001)     ;
(PID.TID 0000.0001) use3Dsolver = /* use 3-D pressure solver on/off flag */
(PID.TID 0000.0001)                   T
(PID.TID 0000.0001)     ;
(PID.TID 0000.0001) nonHydrostatic =  /* Non-Hydrostatic on/off flag */
(PID.TID 0000.0001)                   T
(PID.TID 0000.0001)     ;
(PID.TID 0000.0001) nh_Am2 = /* Non-Hydrostatic terms scaling factor */
(PID.TID 0000.0001)                 1.000000000000000E+00
(PID.TID 0000.0001)     ;
(PID.TID 0000.0001) implicitNHPress = /* Non-Hyd Pressure implicit factor (0-1)*/
(PID.TID 0000.0001)                 1.000000000000000E+00
(PID.TID 0000.0001)     ;
(PID.TID 0000.0001) selectNHfreeSurf = /* Non-Hyd (free-)Surface option */
(PID.TID 0000.0001)                       0
(PID.TID 0000.0001)     ;
(PID.TID 0000.0001) quasiHydrostatic = /* Quasi-Hydrostatic on/off flag */
(PID.TID 0000.0001)                   F
(PID.TID 0000.0001)     ;
(PID.TID 0000.0001) calc_wVelocity = /* vertical velocity calculation on/off flag */
(PID.TID 0000.0001)                   T
(PID.TID 0000.0001)     ;
(PID.TID 0000.0001) momStepping =  /* Momentum equation on/off flag */
(PID.TID 0000.0001)                   T
(PID.TID 0000.0001)     ;
(PID.TID 0000.0001) vectorInvariantMomentum= /* Vector-Invariant Momentum on/off */
(PID.TID 0000.0001)                   F
(PID.TID 0000.0001)     ;
(PID.TID 0000.0001) momAdvection =  /* Momentum advection on/off flag */
(PID.TID 0000.0001)                   T
(PID.TID 0000.0001)     ;
(PID.TID 0000.0001) momViscosity =  /* Momentum viscosity on/off flag */
(PID.TID 0000.0001)                   T
(PID.TID 0000.0001)     ;
(PID.TID 0000.0001) momImplVertAdv= /* Momentum implicit vert. advection on/off*/
(PID.TID 0000.0001)                   F
(PID.TID 0000.0001)     ;
(PID.TID 0000.0001) implicitViscosity = /* Implicit viscosity on/off flag */
(PID.TID 0000.0001)                   F
(PID.TID 0000.0001)     ;
(PID.TID 0000.0001) selectImplicitDrag= /* Implicit bot Drag options (0,1,2)*/
(PID.TID 0000.0001)                       0
(PID.TID 0000.0001)     0= Expl. ; 1= Impl. on provis. Vel ; 2= Fully Impl (with surf.P)
(PID.TID 0000.0001)     ;
(PID.TID 0000.0001) selectMetricTerms= /* Scheme selector for Horizontal Metric Terms */
(PID.TID 0000.0001)                       0
(PID.TID 0000.0001)    = 0 : Off (ignore Spherical/Cylindrical Metric Terms)
(PID.TID 0000.0001)    = 1 : original discretization
(PID.TID 0000.0001)    = 2 : using (Spherical) grid-spacing
(PID.TID 0000.0001)    = 3 : as 2 but gU-Metric inside Advection
(PID.TID 0000.0001)     ;
(PID.TID 0000.0001) useNHMTerms = /* Non-Hydrostatic Metric-Terms on/off */
(PID.TID 0000.0001)                   F
(PID.TID 0000.0001)     ;
(PID.TID 0000.0001) useCoriolis =  /* Coriolis on/off flag */
(PID.TID 0000.0001)                   T
(PID.TID 0000.0001)     ;
(PID.TID 0000.0001) useCDscheme =  /* CD scheme on/off flag */
(PID.TID 0000.0001)                   F
(PID.TID 0000.0001)     ;
(PID.TID 0000.0001) selectCoriMap = /* Coriolis Map options (0,1,2,3)*/
(PID.TID 0000.0001)                       1
(PID.TID 0000.0001)     0= f-Plane ; 1= Beta-Plane ; 2= Spherical ; 3= read from file
(PID.TID 0000.0001)     ;
(PID.TID 0000.0001) select3dCoriScheme= /* Scheme selector for 3-D Coriolis-Term */
(PID.TID 0000.0001)                       0
(PID.TID 0000.0001)    = 0 : Off (ignore 3-D Coriolis Terms in Omega.Cos(Lat) )
(PID.TID 0000.0001)    = 1 : original discretization ; = 2 : using averaged Transport
(PID.TID 0000.0001)    = 3 : same as 2 with hFac in gW_Cor
(PID.TID 0000.0001)     ;
(PID.TID 0000.0001) selectCoriScheme= /* Scheme selector for Coriolis-Term */
(PID.TID 0000.0001)                       0
(PID.TID 0000.0001)    = 0 : original discretization (simple averaging, no hFac)
(PID.TID 0000.0001)    = 1 : Wet-point averaging (Jamar & Ozer 1986)
(PID.TID 0000.0001)    = 2 : energy conserving scheme (no hFac weight)
(PID.TID 0000.0001)    = 3 : energy conserving scheme using Wet-point averaging
(PID.TID 0000.0001)    = 4 : hFac weighted average (Angular Mom. conserving)
(PID.TID 0000.0001)     ;
(PID.TID 0000.0001) momForcing =  /* Momentum forcing on/off flag */
(PID.TID 0000.0001)                   T
(PID.TID 0000.0001)     ;
(PID.TID 0000.0001) momTidalForcing = /* Momentum Tidal forcing on/off flag */
(PID.TID 0000.0001)                   T
(PID.TID 0000.0001)     ;
(PID.TID 0000.0001) momPressureForcing =  /* Momentum pressure term on/off flag */
(PID.TID 0000.0001)                   T
(PID.TID 0000.0001)     ;
(PID.TID 0000.0001) implicitIntGravWave= /* Implicit Internal Gravity Wave flag */
(PID.TID 0000.0001)                   F
(PID.TID 0000.0001)     ;
(PID.TID 0000.0001) staggerTimeStep =    /* Stagger time stepping on/off flag */
(PID.TID 0000.0001)                   T
(PID.TID 0000.0001)     ;
(PID.TID 0000.0001) doResetHFactors = /* reset thickness factors @ each time-step */
(PID.TID 0000.0001)                   F
(PID.TID 0000.0001)     ;
(PID.TID 0000.0001) multiDimAdvection =  /* enable/disable Multi-Dim Advection */
(PID.TID 0000.0001)                   T
(PID.TID 0000.0001)     ;
(PID.TID 0000.0001) useMultiDimAdvec =   /* Multi-Dim Advection is/is-not used */
(PID.TID 0000.0001)                   T
(PID.TID 0000.0001)     ;
(PID.TID 0000.0001) implicitDiffusion = /* Implicit Diffusion on/off flag */
(PID.TID 0000.0001)                   F
(PID.TID 0000.0001)     ;
(PID.TID 0000.0001) tempStepping =  /* Temperature equation on/off flag */
(PID.TID 0000.0001)                   T
(PID.TID 0000.0001)     ;
(PID.TID 0000.0001) tempAdvection = /* Temperature advection on/off flag */
(PID.TID 0000.0001)                   T
(PID.TID 0000.0001)     ;
(PID.TID 0000.0001) tempImplVertAdv = /* Temp. implicit vert. advection on/off */
(PID.TID 0000.0001)                   F
(PID.TID 0000.0001)     ;
(PID.TID 0000.0001) tempForcing  =  /* Temperature forcing on/off flag */
(PID.TID 0000.0001)                   T
(PID.TID 0000.0001)     ;
(PID.TID 0000.0001) selectPenetratingSW = /* short wave penetration selector */
(PID.TID 0000.0001)                       0
(PID.TID 0000.0001)     ;
(PID.TID 0000.0001) doThetaClimRelax = /* apply SST relaxation on/off flag */
(PID.TID 0000.0001)                   F
(PID.TID 0000.0001)     ;
(PID.TID 0000.0001) tempIsActiveTr = /* Temp. is a dynamically Active Tracer */
(PID.TID 0000.0001)                   T
(PID.TID 0000.0001)     ;
(PID.TID 0000.0001) saltStepping =  /* Salinity equation on/off flag */
(PID.TID 0000.0001)                   T
(PID.TID 0000.0001)     ;
(PID.TID 0000.0001) saltAdvection = /* Salinity advection on/off flag */
(PID.TID 0000.0001)                   T
(PID.TID 0000.0001)     ;
(PID.TID 0000.0001) saltImplVertAdv = /* Sali. implicit vert. advection on/off */
(PID.TID 0000.0001)                   F
(PID.TID 0000.0001)     ;
(PID.TID 0000.0001) saltForcing  =  /* Salinity forcing on/off flag */
(PID.TID 0000.0001)                   T
(PID.TID 0000.0001)     ;
(PID.TID 0000.0001) doSaltClimRelax = /* apply SSS relaxation on/off flag */
(PID.TID 0000.0001)                   F
(PID.TID 0000.0001)     ;
(PID.TID 0000.0001) saltIsActiveTr = /* Salt  is a dynamically Active Tracer */
(PID.TID 0000.0001)                   F
(PID.TID 0000.0001)     ;
(PID.TID 0000.0001)  readBinaryPrec = /* Precision used for reading binary files */
(PID.TID 0000.0001)                      64
(PID.TID 0000.0001)     ;
(PID.TID 0000.0001) writeBinaryPrec = /* Precision used for writing binary files */
(PID.TID 0000.0001)                      32
(PID.TID 0000.0001)     ;
(PID.TID 0000.0001)  rwSuffixType =   /* select format of mds file suffix */
(PID.TID 0000.0001)                       0
(PID.TID 0000.0001)    = 0 : myIter (I10.10) ;   = 1 : 100*myTime (100th sec) ;
(PID.TID 0000.0001)    = 2 : myTime (seconds);   = 3 : myTime/360 (10th of hr);
(PID.TID 0000.0001)    = 4 : myTime/3600 (hours)
(PID.TID 0000.0001)     ;
(PID.TID 0000.0001)  globalFiles = /* write "global" (=not per tile) files */
(PID.TID 0000.0001)                   F
(PID.TID 0000.0001)     ;
(PID.TID 0000.0001)  useSingleCpuIO = /* only master MPI process does I/O */
(PID.TID 0000.0001)                   F
(PID.TID 0000.0001)     ;
(PID.TID 0000.0001)  useSingleCpuInput = /* only master process reads input */
(PID.TID 0000.0001)                   F
(PID.TID 0000.0001)     ;
(PID.TID 0000.0001) /* debLev[*]  : level of debug & auxiliary message printing */
(PID.TID 0000.0001) debLevZero =  0 ; /* level of disabled aux. msg printing */
(PID.TID 0000.0001)    debLevA =  1 ; /* level of minimum  aux. msg printing */
(PID.TID 0000.0001)    debLevB =  2 ; /* level of low aux. print (report read-file opening)*/
(PID.TID 0000.0001)    debLevC =  3 ; /* level of moderate debug prt (most pkgs debug msg) */
(PID.TID 0000.0001)    debLevD =  4 ; /* level of enhanced debug prt (add DEBUG_STATS prt) */
(PID.TID 0000.0001)    debLevE =  5 ; /* level of extensive debug printing */
(PID.TID 0000.0001) debugLevel =  /* select debug printing level */
(PID.TID 0000.0001)                       2
(PID.TID 0000.0001)     ;
(PID.TID 0000.0001)  plotLevel =  /* select PLOT_FIELD printing level */
(PID.TID 0000.0001)                       0
(PID.TID 0000.0001)     ;
(PID.TID 0000.0001) //
(PID.TID 0000.0001) // Elliptic solver(s) paramters ( PARM02 in namelist )
(PID.TID 0000.0001) //
(PID.TID 0000.0001) cg2dMaxIters =   /* Upper limit on 2d con. grad iterations  */
(PID.TID 0000.0001)                     300
(PID.TID 0000.0001)     ;
(PID.TID 0000.0001) cg2dMinItersNSA =   /* Minimum number of iterations of 2d con. grad solver  */
(PID.TID 0000.0001)                       0
(PID.TID 0000.0001)     ;
(PID.TID 0000.0001) cg2dUseMinResSol= /* use cg2d last-iter(=0) / min-resid.(=1) solution */
(PID.TID 0000.0001)                       0
(PID.TID 0000.0001)     ;
(PID.TID 0000.0001) cg2dTargetResidual =   /* 2d con. grad target residual  */
(PID.TID 0000.0001)                 1.000000000000000E-13
(PID.TID 0000.0001)     ;
(PID.TID 0000.0001) cg2dTargetResWunit =   /* CG2d target residual [W units] */
(PID.TID 0000.0001)                -1.000000000000000E+00
(PID.TID 0000.0001)     ;
(PID.TID 0000.0001) cg2dPreCondFreq =   /* Freq. for updating cg2d preconditioner */
(PID.TID 0000.0001)                       1
(PID.TID 0000.0001)     ;
(PID.TID 0000.0001) useSRCGSolver =  /* use single reduction CG solver(s) */
(PID.TID 0000.0001)                   F
(PID.TID 0000.0001)     ;
(PID.TID 0000.0001) useNSACGSolver =  /* use not-self-adjoint CG solver */
(PID.TID 0000.0001)                   F
(PID.TID 0000.0001)     ;
(PID.TID 0000.0001) printResidualFreq = /* Freq. for printing CG residual */
(PID.TID 0000.0001)                      -1
(PID.TID 0000.0001)     ;
(PID.TID 0000.0001) cg3dMaxIters =   /* Upper limit on CG3d iterations  */
(PID.TID 0000.0001)                      20
(PID.TID 0000.0001)     ;
(PID.TID 0000.0001) cg3dTargetResidual =   /* CG3d target residual [normalise RHS] */
(PID.TID 0000.0001)                 1.000000000000000E-08
(PID.TID 0000.0001)     ;
(PID.TID 0000.0001) cg3dTargetResWunit =   /* CG3d target residual [W units] */
(PID.TID 0000.0001)                -1.000000000000000E+00
(PID.TID 0000.0001)     ;
(PID.TID 0000.0001) //
(PID.TID 0000.0001) // Time stepping paramters ( PARM03 in namelist )
(PID.TID 0000.0001) //
(PID.TID 0000.0001) deltaTMom =   /* Momentum equation timestep ( s ) */
(PID.TID 0000.0001)                 2.000000000000000E+01
(PID.TID 0000.0001)     ;
(PID.TID 0000.0001) deltaTFreeSurf = /* FreeSurface equation timestep ( s ) */
(PID.TID 0000.0001)                 2.000000000000000E+01
(PID.TID 0000.0001)     ;
(PID.TID 0000.0001) dTtracerLev =  /* Tracer equation timestep ( s ) */
(PID.TID 0000.0001)    60 @  2.000000000000000E+01              /* K =  1: 60 */
(PID.TID 0000.0001)     ;
(PID.TID 0000.0001) deltaTClock  =   /* Model clock timestep ( s ) */
(PID.TID 0000.0001)                 2.000000000000000E+01
(PID.TID 0000.0001)     ;
(PID.TID 0000.0001) cAdjFreq =   /* Convective adjustment interval ( s ) */
(PID.TID 0000.0001)                 0.000000000000000E+00
(PID.TID 0000.0001)     ;
(PID.TID 0000.0001) momForcingOutAB = /* =1: take Momentum Forcing out of Adams-Bash. stepping */
(PID.TID 0000.0001)                       0
(PID.TID 0000.0001)     ;
(PID.TID 0000.0001) tracForcingOutAB = /* =1: take T,S,pTr Forcing out of Adams-Bash. stepping */
(PID.TID 0000.0001)                       0
(PID.TID 0000.0001)     ;
(PID.TID 0000.0001) momDissip_In_AB = /* put Dissipation Tendency in Adams-Bash. stepping */
(PID.TID 0000.0001)                   T
(PID.TID 0000.0001)     ;
(PID.TID 0000.0001) doAB_onGtGs = /* apply AB on Tendencies (rather than on T,S)*/
(PID.TID 0000.0001)                   T
(PID.TID 0000.0001)     ;
(PID.TID 0000.0001) abEps =   /* Adams-Bashforth-2 stabilizing weight */
(PID.TID 0000.0001)                 1.000000000000000E-02
(PID.TID 0000.0001)     ;
(PID.TID 0000.0001) applyExchUV_early = /* Apply EXCH to U,V earlier in time-step */
(PID.TID 0000.0001)                   F
(PID.TID 0000.0001)     ;
(PID.TID 0000.0001) pickupStrictlyMatch= /* stop if pickup do not strictly match */
(PID.TID 0000.0001)                   T
(PID.TID 0000.0001)     ;
(PID.TID 0000.0001) nIter0   =   /* Run starting timestep number */
(PID.TID 0000.0001)                       0
(PID.TID 0000.0001)     ;
(PID.TID 0000.0001) nTimeSteps = /* Number of timesteps */
(PID.TID 0000.0001)                    4320
(PID.TID 0000.0001)     ;
(PID.TID 0000.0001) nEndIter =   /* Run ending timestep number */
(PID.TID 0000.0001)                    4320
(PID.TID 0000.0001)     ;
(PID.TID 0000.0001) baseTime =   /* Model base time ( s ) */
(PID.TID 0000.0001)                 0.000000000000000E+00
(PID.TID 0000.0001)     ;
(PID.TID 0000.0001) startTime =  /* Run start time ( s ) */
(PID.TID 0000.0001)                 0.000000000000000E+00
(PID.TID 0000.0001)     ;
(PID.TID 0000.0001) endTime  =   /* Integration ending time ( s ) */
(PID.TID 0000.0001)                 8.640000000000000E+04
(PID.TID 0000.0001)     ;
(PID.TID 0000.0001) pChkPtFreq = /* Permanent restart/pickup file interval ( s ) */
(PID.TID 0000.0001)                 0.000000000000000E+00
(PID.TID 0000.0001)     ;
(PID.TID 0000.0001) chkPtFreq  = /* Rolling restart/pickup file interval ( s ) */
(PID.TID 0000.0001)                 0.000000000000000E+00
(PID.TID 0000.0001)     ;
(PID.TID 0000.0001) pickup_write_mdsio =   /* Model IO flag. */
(PID.TID 0000.0001)                   T
(PID.TID 0000.0001)     ;
(PID.TID 0000.0001) pickup_read_mdsio =   /* Model IO flag. */
(PID.TID 0000.0001)                   T
(PID.TID 0000.0001)     ;
(PID.TID 0000.0001) pickup_write_mnc =   /* Model IO flag. */
(PID.TID 0000.0001)                   F
(PID.TID 0000.0001)     ;
(PID.TID 0000.0001) pickup_read_mnc =   /* Model IO flag. */
(PID.TID 0000.0001)                   F
(PID.TID 0000.0001)     ;
(PID.TID 0000.0001) writePickupAtEnd =   /* Model IO flag. */
(PID.TID 0000.0001)                   T
(PID.TID 0000.0001)     ;
(PID.TID 0000.0001) dumpFreq =   /* Model state write out interval ( s ). */
(PID.TID 0000.0001)                 6.000000000000000E+02
(PID.TID 0000.0001)     ;
(PID.TID 0000.0001) dumpInitAndLast= /* write out Initial & Last iter. model state */
(PID.TID 0000.0001)                   T
(PID.TID 0000.0001)     ;
(PID.TID 0000.0001) snapshot_mdsio =   /* Model IO flag. */
(PID.TID 0000.0001)                   F
(PID.TID 0000.0001)     ;
(PID.TID 0000.0001) snapshot_mnc =   /* Model IO flag. */
(PID.TID 0000.0001)                   T
(PID.TID 0000.0001)     ;
(PID.TID 0000.0001) monitorFreq =   /* Monitor output interval ( s ). */
(PID.TID 0000.0001)                 6.000000000000000E+02
(PID.TID 0000.0001)     ;
(PID.TID 0000.0001) monitorSelect = /* select group of variables to monitor */
(PID.TID 0000.0001)                       2
(PID.TID 0000.0001)     ;
(PID.TID 0000.0001) monitor_stdio =   /* Model IO flag. */
(PID.TID 0000.0001)                   T
(PID.TID 0000.0001)     ;
(PID.TID 0000.0001) monitor_mnc =   /* Model IO flag. */
(PID.TID 0000.0001)                   F
(PID.TID 0000.0001)     ;
(PID.TID 0000.0001) externForcingPeriod =   /* forcing period (s) */
(PID.TID 0000.0001)                 0.000000000000000E+00
(PID.TID 0000.0001)     ;
(PID.TID 0000.0001) externForcingCycle =   /* period of the cyle (s). */
(PID.TID 0000.0001)                 0.000000000000000E+00
(PID.TID 0000.0001)     ;
(PID.TID 0000.0001) tauThetaClimRelax =   /* relaxation time scale (s) */
(PID.TID 0000.0001)                 0.000000000000000E+00
(PID.TID 0000.0001)     ;
(PID.TID 0000.0001) tauSaltClimRelax =   /* relaxation time scale (s) */
(PID.TID 0000.0001)                 0.000000000000000E+00
(PID.TID 0000.0001)     ;
(PID.TID 0000.0001) latBandClimRelax =   /* max. Lat. where relaxation */
(PID.TID 0000.0001)                 6.000000000000000E+02
(PID.TID 0000.0001)     ;
(PID.TID 0000.0001) //
(PID.TID 0000.0001) // Gridding paramters ( PARM04 in namelist )
(PID.TID 0000.0001) //
(PID.TID 0000.0001) usingCartesianGrid = /* Cartesian coordinates flag ( True/False ) */
(PID.TID 0000.0001)                   T
(PID.TID 0000.0001)     ;
(PID.TID 0000.0001) usingCylindricalGrid = /* Cylindrical coordinates flag ( True/False ) */
(PID.TID 0000.0001)                   F
(PID.TID 0000.0001)     ;
(PID.TID 0000.0001) usingSphericalPolarGrid = /* Spherical coordinates flag ( True/False ) */
(PID.TID 0000.0001)                   F
(PID.TID 0000.0001)     ;
(PID.TID 0000.0001) usingCurvilinearGrid = /* Curvilinear coordinates flag ( True/False ) */
(PID.TID 0000.0001)                   F
(PID.TID 0000.0001)     ;
(PID.TID 0000.0001) useMin4hFacEdges = /* set hFacW,S as minimum of adjacent hFacC factor */
(PID.TID 0000.0001)                   F
(PID.TID 0000.0001)     ;
(PID.TID 0000.0001) interViscAr_pCell = /* account for partial-cell in interior vert. viscosity */
(PID.TID 0000.0001)                   F
(PID.TID 0000.0001)     ;
(PID.TID 0000.0001) interDiffKr_pCell = /* account for partial-cell in interior vert. diffusion */
(PID.TID 0000.0001)                   F
(PID.TID 0000.0001)     ;
(PID.TID 0000.0001) pCellMix_select = /* option to enhance mixing near surface & bottom */
(PID.TID 0000.0001)                       0
(PID.TID 0000.0001)     ;
(PID.TID 0000.0001) selectSigmaCoord = /* Hybrid-Sigma Vert. Coordinate option */
(PID.TID 0000.0001)                       0
(PID.TID 0000.0001)     ;
(PID.TID 0000.0001) rSigmaBnd = /* r/sigma transition ( units of r ==  m ) */
(PID.TID 0000.0001)                 1.234567000000000E+05
(PID.TID 0000.0001)     ;
(PID.TID 0000.0001) rkSign =   /* index orientation relative to vertical coordinate */
(PID.TID 0000.0001)                -1.000000000000000E+00
(PID.TID 0000.0001)     ;
(PID.TID 0000.0001) gravitySign = /* gravity orientation relative to vertical coordinate */
(PID.TID 0000.0001)                -1.000000000000000E+00
(PID.TID 0000.0001)     ;
(PID.TID 0000.0001) seaLev_Z =  /* reference height of sea-level [m] */
(PID.TID 0000.0001)                 0.000000000000000E+00
(PID.TID 0000.0001)     ;
(PID.TID 0000.0001) top_Pres =  /* reference pressure at the top [Pa] */
(PID.TID 0000.0001)                 0.000000000000000E+00
(PID.TID 0000.0001)     ;
(PID.TID 0000.0001) mass2rUnit = /* convert mass per unit area [kg/m2] to r-units [m] */
(PID.TID 0000.0001)                 1.000200040008002E-03
(PID.TID 0000.0001)     ;
(PID.TID 0000.0001) rUnit2mass = /* convert r-units [m] to mass per unit area [kg/m2] */
(PID.TID 0000.0001)                 9.998000000000000E+02
(PID.TID 0000.0001)     ;
(PID.TID 0000.0001) drC =   /* C spacing ( units of r ) */
(PID.TID 0000.0001)                 1.666666666666667E+00,      /* K =  1 */
(PID.TID 0000.0001)    59 @  3.333333333333333E+00,             /* K =  2: 60 */
(PID.TID 0000.0001)                 1.666666666666667E+00       /* K = 61 */
(PID.TID 0000.0001)     ;
(PID.TID 0000.0001) drF =   /* W spacing ( units of r ) */
(PID.TID 0000.0001)    60 @  3.333333333333333E+00              /* K =  1: 60 */
(PID.TID 0000.0001)     ;
(PID.TID 0000.0001) delX = /* U spacing ( m - cartesian, degrees - spherical ) */
(PID.TID 0000.0001)                 1.333350557843028E+01,      /* I =  1 */
(PID.TID 0000.0001)                 1.333351440956528E+01,      /* I =  2 */
(PID.TID 0000.0001)                 1.333352369347595E+01,      /* I =  3 */
(PID.TID 0000.0001)      . . .
(PID.TID 0000.0001)                 1.334142525413410E+01,      /* I = 78 */
(PID.TID 0000.0001)                 1.334184000343805E+01,      /* I = 79 */
(PID.TID 0000.0001)                 1.334227600347911E+01,      /* I = 80 */
(PID.TID 0000.0001)                 1.334273434234323E+01,      /* I = 81 */
(PID.TID 0000.0001)                 1.334321616375004E+01,      /* I = 82 */
(PID.TID 0000.0001)                 1.334372266988903E+01,      /* I = 83 */
(PID.TID 0000.0001)      . . .
(PID.TID 0000.0001)                 1.376806664990509E+01,      /* I =158 */
(PID.TID 0000.0001)                 1.378997422175274E+01,      /* I =159 */
(PID.TID 0000.0001)                 1.381296559898911E+01,      /* I =160 */
(PID.TID 0000.0001)                 1.383709231832104E+01,      /* I =161 */
(PID.TID 0000.0001)                 1.386240815290873E+01,      /* I =162 */
(PID.TID 0000.0001)                 1.388896918716481E+01,      /* I =163 */
(PID.TID 0000.0001)      . . .
(PID.TID 0000.0001)                 2.600055500056160E+01,      /* I =238 */
(PID.TID 0000.0001)                 2.633340276042106E+01,      /* I =239 */
(PID.TID 0000.0001)                 2.666666666666666E+01,      /* I =240 */
(PID.TID 0000.0001)                 2.699993057291228E+01,      /* I =241 */
(PID.TID 0000.0001)                 2.733277833277173E+01,      /* I =242 */
(PID.TID 0000.0001)                 2.766479587583332E+01,      /* I =243 */
(PID.TID 0000.0001)      . . .
(PID.TID 0000.0001)                 3.947092518042460E+01,      /* I =318 */
(PID.TID 0000.0001)                 3.949624101501229E+01,      /* I =319 */
(PID.TID 0000.0001)                 3.952036773434423E+01       /* I =320 */
(PID.TID 0000.0001)     ;
(PID.TID 0000.0001) delY = /* V spacing ( m - cartesian, degrees - spherical ) */
(PID.TID 0000.0001)                 2.000000000000000E+02       /* J =  1 */
(PID.TID 0000.0001)     ;
(PID.TID 0000.0001) xgOrigin = /* X-axis origin of West  edge (cartesian: m, lat-lon: deg) */
(PID.TID 0000.0001)                 0.000000000000000E+00
(PID.TID 0000.0001)     ;
(PID.TID 0000.0001) ygOrigin = /* Y-axis origin of South edge (cartesian: m, lat-lon: deg) */
(PID.TID 0000.0001)                 0.000000000000000E+00
(PID.TID 0000.0001)     ;
(PID.TID 0000.0001) rSphere =  /* Radius ( ignored - cartesian, m - spherical ) */
(PID.TID 0000.0001)                 6.370000000000000E+06
(PID.TID 0000.0001)     ;
(PID.TID 0000.0001) deepAtmosphere = /* Deep/Shallow Atmosphere flag (True/False) */
(PID.TID 0000.0001)                   F
(PID.TID 0000.0001)     ;
(PID.TID 0000.0001) xC =  /* xC(:,1,:,1) : P-point X coord ( deg. or m if cartesian) */
(PID.TID 0000.0001)                 6.666752789215141E+00,      /* I =  1 */
(PID.TID 0000.0001)                 2.000026278321292E+01,      /* I =  2 */
(PID.TID 0000.0001)                 3.333378183473354E+01,      /* I =  3 */
(PID.TID 0000.0001)      . . .
(PID.TID 0000.0001)                 1.033491870505545E+03,      /* I = 78 */
(PID.TID 0000.0001)                 1.046833503134331E+03,      /* I = 79 */
(PID.TID 0000.0001)                 1.060175561137789E+03,      /* I = 80 */
(PID.TID 0000.0001)                 1.073518066310700E+03,      /* I = 81 */
(PID.TID 0000.0001)                 1.086861041563747E+03,      /* I = 82 */
(PID.TID 0000.0001)                 1.100204510980566E+03,      /* I = 83 */
(PID.TID 0000.0001)      . . .
(PID.TID 0000.0001)                 2.108764740818271E+03,      /* I =158 */
(PID.TID 0000.0001)                 2.122543761254100E+03,      /* I =159 */
(PID.TID 0000.0001)                 2.136345231164471E+03,      /* I =160 */
(PID.TID 0000.0001)                 2.150170260123126E+03,      /* I =161 */
(PID.TID 0000.0001)                 2.164020010358741E+03,      /* I =162 */
(PID.TID 0000.0001)                 2.177895699028778E+03,      /* I =163 */
(PID.TID 0000.0001)      . . .
(PID.TID 0000.0001)                 3.510369234886317E+03,      /* I =238 */
(PID.TID 0000.0001)                 3.536536213766808E+03,      /* I =239 */
(PID.TID 0000.0001)                 3.563036248480352E+03,      /* I =240 */
(PID.TID 0000.0001)                 3.589869547100141E+03,      /* I =241 */
(PID.TID 0000.0001)                 3.617035901552983E+03,      /* I =242 */
(PID.TID 0000.0001)                 3.644534688657286E+03,      /* I =243 */
(PID.TID 0000.0001)      . . .
(PID.TID 0000.0001)                 6.324020010358740E+03,      /* I =318 */
(PID.TID 0000.0001)                 6.363503593456458E+03,      /* I =319 */
(PID.TID 0000.0001)                 6.403011897831137E+03       /* I =320 */
(PID.TID 0000.0001)     ;
(PID.TID 0000.0001) yC =  /* yC(1,:,1,:) : P-point Y coord ( deg. or m if cartesian) */
(PID.TID 0000.0001)                 1.000000000000000E+02       /* J =  1 */
(PID.TID 0000.0001)     ;
(PID.TID 0000.0001) rcoord = /* P-point R coordinate (  units of r ) */
(PID.TID 0000.0001)                -1.666666666666667E+00,      /* K =  1 */
(PID.TID 0000.0001)                -5.000000000000000E+00,      /* K =  2 */
(PID.TID 0000.0001)                -8.333333333333334E+00,      /* K =  3 */
(PID.TID 0000.0001)                -1.166666666666667E+01,      /* K =  4 */
(PID.TID 0000.0001)                -1.500000000000000E+01,      /* K =  5 */
(PID.TID 0000.0001)                -1.833333333333334E+01,      /* K =  6 */
(PID.TID 0000.0001)                -2.166666666666667E+01,      /* K =  7 */
(PID.TID 0000.0001)                -2.500000000000000E+01,      /* K =  8 */
(PID.TID 0000.0001)                -2.833333333333333E+01,      /* K =  9 */
(PID.TID 0000.0001)                -3.166666666666666E+01,      /* K = 10 */
(PID.TID 0000.0001)                -3.500000000000000E+01,      /* K = 11 */
(PID.TID 0000.0001)                -3.833333333333334E+01,      /* K = 12 */
(PID.TID 0000.0001)                -4.166666666666667E+01,      /* K = 13 */
(PID.TID 0000.0001)                -4.500000000000001E+01,      /* K = 14 */
(PID.TID 0000.0001)                -4.833333333333334E+01,      /* K = 15 */
(PID.TID 0000.0001)                -5.166666666666668E+01,      /* K = 16 */
(PID.TID 0000.0001)                -5.500000000000001E+01,      /* K = 17 */
(PID.TID 0000.0001)                -5.833333333333335E+01,      /* K = 18 */
(PID.TID 0000.0001)                -6.166666666666669E+01,      /* K = 19 */
(PID.TID 0000.0001)                -6.500000000000001E+01,      /* K = 20 */
(PID.TID 0000.0001)                -6.833333333333334E+01,      /* K = 21 */
(PID.TID 0000.0001)                -7.166666666666667E+01,      /* K = 22 */
(PID.TID 0000.0001)                -7.500000000000000E+01,      /* K = 23 */
(PID.TID 0000.0001)                -7.833333333333333E+01,      /* K = 24 */
(PID.TID 0000.0001)                -8.166666666666666E+01,      /* K = 25 */
(PID.TID 0000.0001)                -8.499999999999999E+01,      /* K = 26 */
(PID.TID 0000.0001)                -8.833333333333331E+01,      /* K = 27 */
(PID.TID 0000.0001)                -9.166666666666664E+01,      /* K = 28 */
(PID.TID 0000.0001)                -9.499999999999997E+01,      /* K = 29 */
(PID.TID 0000.0001)                -9.833333333333330E+01,      /* K = 30 */
(PID.TID 0000.0001)                -1.016666666666666E+02,      /* K = 31 */
(PID.TID 0000.0001)                -1.050000000000000E+02,      /* K = 32 */
(PID.TID 0000.0001)                -1.083333333333333E+02,      /* K = 33 */
(PID.TID 0000.0001)                -1.116666666666666E+02,      /* K = 34 */
(PID.TID 0000.0001)                -1.149999999999999E+02,      /* K = 35 */
(PID.TID 0000.0001)                -1.183333333333333E+02,      /* K = 36 */
(PID.TID 0000.0001)                -1.216666666666666E+02,      /* K = 37 */
(PID.TID 0000.0001)                -1.249999999999999E+02,      /* K = 38 */
(PID.TID 0000.0001)                -1.283333333333333E+02,      /* K = 39 */
(PID.TID 0000.0001)                -1.316666666666666E+02,      /* K = 40 */
(PID.TID 0000.0001)                -1.349999999999999E+02,      /* K = 41 */
(PID.TID 0000.0001)                -1.383333333333333E+02,      /* K = 42 */
(PID.TID 0000.0001)                -1.416666666666666E+02,      /* K = 43 */
(PID.TID 0000.0001)                -1.450000000000000E+02,      /* K = 44 */
(PID.TID 0000.0001)                -1.483333333333333E+02,      /* K = 45 */
(PID.TID 0000.0001)                -1.516666666666667E+02,      /* K = 46 */
(PID.TID 0000.0001)                -1.550000000000000E+02,      /* K = 47 */
(PID.TID 0000.0001)                -1.583333333333333E+02,      /* K = 48 */
(PID.TID 0000.0001)                -1.616666666666667E+02,      /* K = 49 */
(PID.TID 0000.0001)                -1.650000000000000E+02,      /* K = 50 */
(PID.TID 0000.0001)                -1.683333333333334E+02,      /* K = 51 */
(PID.TID 0000.0001)                -1.716666666666667E+02,      /* K = 52 */
(PID.TID 0000.0001)                -1.750000000000001E+02,      /* K = 53 */
(PID.TID 0000.0001)                -1.783333333333334E+02,      /* K = 54 */
(PID.TID 0000.0001)                -1.816666666666667E+02,      /* K = 55 */
(PID.TID 0000.0001)                -1.850000000000001E+02,      /* K = 56 */
(PID.TID 0000.0001)                -1.883333333333334E+02,      /* K = 57 */
(PID.TID 0000.0001)                -1.916666666666668E+02,      /* K = 58 */
(PID.TID 0000.0001)                -1.950000000000001E+02,      /* K = 59 */
(PID.TID 0000.0001)                -1.983333333333335E+02       /* K = 60 */
(PID.TID 0000.0001)     ;
(PID.TID 0000.0001) rF =   /* W-Interf. R coordinate (  units of r ) */
(PID.TID 0000.0001)                 0.000000000000000E+00,      /* K =  1 */
(PID.TID 0000.0001)                -3.333333333333333E+00,      /* K =  2 */
(PID.TID 0000.0001)                -6.666666666666667E+00,      /* K =  3 */
(PID.TID 0000.0001)                -1.000000000000000E+01,      /* K =  4 */
(PID.TID 0000.0001)                -1.333333333333333E+01,      /* K =  5 */
(PID.TID 0000.0001)                -1.666666666666667E+01,      /* K =  6 */
(PID.TID 0000.0001)                -2.000000000000000E+01,      /* K =  7 */
(PID.TID 0000.0001)                -2.333333333333333E+01,      /* K =  8 */
(PID.TID 0000.0001)                -2.666666666666666E+01,      /* K =  9 */
(PID.TID 0000.0001)                -3.000000000000000E+01,      /* K = 10 */
(PID.TID 0000.0001)                -3.333333333333333E+01,      /* K = 11 */
(PID.TID 0000.0001)                -3.666666666666666E+01,      /* K = 12 */
(PID.TID 0000.0001)                -4.000000000000000E+01,      /* K = 13 */
(PID.TID 0000.0001)                -4.333333333333334E+01,      /* K = 14 */
(PID.TID 0000.0001)                -4.666666666666667E+01,      /* K = 15 */
(PID.TID 0000.0001)                -5.000000000000001E+01,      /* K = 16 */
(PID.TID 0000.0001)                -5.333333333333334E+01,      /* K = 17 */
(PID.TID 0000.0001)                -5.666666666666668E+01,      /* K = 18 */
(PID.TID 0000.0001)                -6.000000000000001E+01,      /* K = 19 */
(PID.TID 0000.0001)                -6.333333333333335E+01,      /* K = 20 */
(PID.TID 0000.0001)                -6.666666666666669E+01,      /* K = 21 */
(PID.TID 0000.0001)                -7.000000000000001E+01,      /* K = 22 */
(PID.TID 0000.0001)                -7.333333333333334E+01,      /* K = 23 */
(PID.TID 0000.0001)                -7.666666666666667E+01,      /* K = 24 */
(PID.TID 0000.0001)                -8.000000000000000E+01,      /* K = 25 */
(PID.TID 0000.0001)                -8.333333333333333E+01,      /* K = 26 */
(PID.TID 0000.0001)                -8.666666666666666E+01,      /* K = 27 */
(PID.TID 0000.0001)                -8.999999999999999E+01,      /* K = 28 */
(PID.TID 0000.0001)                -9.333333333333331E+01,      /* K = 29 */
(PID.TID 0000.0001)                -9.666666666666664E+01,      /* K = 30 */
(PID.TID 0000.0001)                -9.999999999999997E+01,      /* K = 31 */
(PID.TID 0000.0001)                -1.033333333333333E+02,      /* K = 32 */
(PID.TID 0000.0001)                -1.066666666666666E+02,      /* K = 33 */
(PID.TID 0000.0001)                -1.100000000000000E+02,      /* K = 34 */
(PID.TID 0000.0001)                -1.133333333333333E+02,      /* K = 35 */
(PID.TID 0000.0001)                -1.166666666666666E+02,      /* K = 36 */
(PID.TID 0000.0001)                -1.199999999999999E+02,      /* K = 37 */
(PID.TID 0000.0001)                -1.233333333333333E+02,      /* K = 38 */
(PID.TID 0000.0001)                -1.266666666666666E+02,      /* K = 39 */
(PID.TID 0000.0001)                -1.299999999999999E+02,      /* K = 40 */
(PID.TID 0000.0001)                -1.333333333333333E+02,      /* K = 41 */
(PID.TID 0000.0001)                -1.366666666666666E+02,      /* K = 42 */
(PID.TID 0000.0001)                -1.400000000000000E+02,      /* K = 43 */
(PID.TID 0000.0001)                -1.433333333333333E+02,      /* K = 44 */
(PID.TID 0000.0001)                -1.466666666666667E+02,      /* K = 45 */
(PID.TID 0000.0001)                -1.500000000000000E+02,      /* K = 46 */
(PID.TID 0000.0001)                -1.533333333333333E+02,      /* K = 47 */
(PID.TID 0000.0001)                -1.566666666666667E+02,      /* K = 48 */
(PID.TID 0000.0001)                -1.600000000000000E+02,      /* K = 49 */
(PID.TID 0000.0001)                -1.633333333333334E+02,      /* K = 50 */
(PID.TID 0000.0001)                -1.666666666666667E+02,      /* K = 51 */
(PID.TID 0000.0001)                -1.700000000000001E+02,      /* K = 52 */
(PID.TID 0000.0001)                -1.733333333333334E+02,      /* K = 53 */
(PID.TID 0000.0001)                -1.766666666666667E+02,      /* K = 54 */
(PID.TID 0000.0001)                -1.800000000000001E+02,      /* K = 55 */
(PID.TID 0000.0001)                -1.833333333333334E+02,      /* K = 56 */
(PID.TID 0000.0001)                -1.866666666666668E+02,      /* K = 57 */
(PID.TID 0000.0001)                -1.900000000000001E+02,      /* K = 58 */
(PID.TID 0000.0001)                -1.933333333333335E+02,      /* K = 59 */
(PID.TID 0000.0001)                -1.966666666666668E+02,      /* K = 60 */
(PID.TID 0000.0001)                -2.000000000000001E+02       /* K = 61 */
(PID.TID 0000.0001)     ;
(PID.TID 0000.0001) deepFacC = /* deep-model grid factor @ cell-Center (-) */
(PID.TID 0000.0001)    60 @  1.000000000000000E+00              /* K =  1: 60 */
(PID.TID 0000.0001)     ;
(PID.TID 0000.0001) deepFacF = /* deep-model grid factor @ W-Interface (-) */
(PID.TID 0000.0001)    61 @  1.000000000000000E+00              /* K =  1: 61 */
(PID.TID 0000.0001)     ;
(PID.TID 0000.0001) rotateGrid = /* use rotated grid ( True/False ) */
(PID.TID 0000.0001)                   F
(PID.TID 0000.0001)     ;
(PID.TID 0000.0001) phiEuler = /* Euler angle, rotation about original z-coordinate [rad] */
(PID.TID 0000.0001)                 0.000000000000000E+00
(PID.TID 0000.0001)     ;
(PID.TID 0000.0001) thetaEuler = /* Euler angle, rotation about new x-coordinate [rad] */
(PID.TID 0000.0001)                 0.000000000000000E+00
(PID.TID 0000.0001)     ;
(PID.TID 0000.0001) psiEuler = /* Euler angle, rotation about new z-coordinate [rad] */
(PID.TID 0000.0001)                 0.000000000000000E+00
(PID.TID 0000.0001)     ;
(PID.TID 0000.0001) dxF =  /* dxF(:,1,:,1) ( units: m ) */
(PID.TID 0000.0001)                 1.333350557843028E+01,      /* I =  1 */
(PID.TID 0000.0001)                 1.333351440956528E+01,      /* I =  2 */
(PID.TID 0000.0001)                 1.333352369347595E+01,      /* I =  3 */
(PID.TID 0000.0001)      . . .
(PID.TID 0000.0001)                 1.334142525413410E+01,      /* I = 78 */
(PID.TID 0000.0001)                 1.334184000343805E+01,      /* I = 79 */
(PID.TID 0000.0001)                 1.334227600347911E+01,      /* I = 80 */
(PID.TID 0000.0001)                 1.334273434234323E+01,      /* I = 81 */
(PID.TID 0000.0001)                 1.334321616375004E+01,      /* I = 82 */
(PID.TID 0000.0001)                 1.334372266988903E+01,      /* I = 83 */
(PID.TID 0000.0001)      . . .
(PID.TID 0000.0001)                 1.376806664990509E+01,      /* I =158 */
(PID.TID 0000.0001)                 1.378997422175274E+01,      /* I =159 */
(PID.TID 0000.0001)                 1.381296559898911E+01,      /* I =160 */
(PID.TID 0000.0001)                 1.383709231832104E+01,      /* I =161 */
(PID.TID 0000.0001)                 1.386240815290873E+01,      /* I =162 */
(PID.TID 0000.0001)                 1.388896918716481E+01,      /* I =163 */
(PID.TID 0000.0001)      . . .
(PID.TID 0000.0001)                 2.600055500056160E+01,      /* I =238 */
(PID.TID 0000.0001)                 2.633340276042106E+01,      /* I =239 */
(PID.TID 0000.0001)                 2.666666666666666E+01,      /* I =240 */
(PID.TID 0000.0001)                 2.699993057291228E+01,      /* I =241 */
(PID.TID 0000.0001)                 2.733277833277173E+01,      /* I =242 */
(PID.TID 0000.0001)                 2.766479587583332E+01,      /* I =243 */
(PID.TID 0000.0001)      . . .
(PID.TID 0000.0001)                 3.947092518042460E+01,      /* I =318 */
(PID.TID 0000.0001)                 3.949624101501229E+01,      /* I =319 */
(PID.TID 0000.0001)                 3.952036773434423E+01       /* I =320 */
(PID.TID 0000.0001)     ;
(PID.TID 0000.0001) dxF =  /* dxF(1,:,1,:) ( units: m ) */
(PID.TID 0000.0001)                 1.333350557843028E+01       /* J =  1 */
(PID.TID 0000.0001)     ;
(PID.TID 0000.0001) dyF =  /* dyF(:,1,:,1) ( units: m ) */
(PID.TID 0000.0001)   320 @  2.000000000000000E+02              /* I =  1:320 */
(PID.TID 0000.0001)     ;
(PID.TID 0000.0001) dyF =  /* dyF(1,:,1,:) ( units: m ) */
(PID.TID 0000.0001)                 2.000000000000000E+02       /* J =  1 */
(PID.TID 0000.0001)     ;
(PID.TID 0000.0001) dxG =  /* dxG(:,1,:,1) ( units: m ) */
(PID.TID 0000.0001)                 1.333350557843028E+01,      /* I =  1 */
(PID.TID 0000.0001)                 1.333351440956528E+01,      /* I =  2 */
(PID.TID 0000.0001)                 1.333352369347595E+01,      /* I =  3 */
(PID.TID 0000.0001)      . . .
(PID.TID 0000.0001)                 1.334142525413410E+01,      /* I = 78 */
(PID.TID 0000.0001)                 1.334184000343805E+01,      /* I = 79 */
(PID.TID 0000.0001)                 1.334227600347911E+01,      /* I = 80 */
(PID.TID 0000.0001)                 1.334273434234323E+01,      /* I = 81 */
(PID.TID 0000.0001)                 1.334321616375004E+01,      /* I = 82 */
(PID.TID 0000.0001)                 1.334372266988903E+01,      /* I = 83 */
(PID.TID 0000.0001)      . . .
(PID.TID 0000.0001)                 1.376806664990509E+01,      /* I =158 */
(PID.TID 0000.0001)                 1.378997422175274E+01,      /* I =159 */
(PID.TID 0000.0001)                 1.381296559898911E+01,      /* I =160 */
(PID.TID 0000.0001)                 1.383709231832104E+01,      /* I =161 */
(PID.TID 0000.0001)                 1.386240815290873E+01,      /* I =162 */
(PID.TID 0000.0001)                 1.388896918716481E+01,      /* I =163 */
(PID.TID 0000.0001)      . . .
(PID.TID 0000.0001)                 2.600055500056160E+01,      /* I =238 */
(PID.TID 0000.0001)                 2.633340276042106E+01,      /* I =239 */
(PID.TID 0000.0001)                 2.666666666666666E+01,      /* I =240 */
(PID.TID 0000.0001)                 2.699993057291228E+01,      /* I =241 */
(PID.TID 0000.0001)                 2.733277833277173E+01,      /* I =242 */
(PID.TID 0000.0001)                 2.766479587583332E+01,      /* I =243 */
(PID.TID 0000.0001)      . . .
(PID.TID 0000.0001)                 3.947092518042460E+01,      /* I =318 */
(PID.TID 0000.0001)                 3.949624101501229E+01,      /* I =319 */
(PID.TID 0000.0001)                 3.952036773434423E+01       /* I =320 */
(PID.TID 0000.0001)     ;
(PID.TID 0000.0001) dxG =  /* dxG(1,:,1,:) ( units: m ) */
(PID.TID 0000.0001)                 1.333350557843028E+01       /* J =  1 */
(PID.TID 0000.0001)     ;
(PID.TID 0000.0001) dyG =  /* dyG(:,1,:,1) ( units: m ) */
(PID.TID 0000.0001)   320 @  2.000000000000000E+02              /* I =  1:320 */
(PID.TID 0000.0001)     ;
(PID.TID 0000.0001) dyG =  /* dyG(1,:,1,:) ( units: m ) */
(PID.TID 0000.0001)                 2.000000000000000E+02       /* J =  1 */
(PID.TID 0000.0001)     ;
(PID.TID 0000.0001) dxC =  /* dxC(:,1,:,1) ( units: m ) */
(PID.TID 0000.0001)                 2.642693665638726E+01,      /* I =  1 */
(PID.TID 0000.0001)                 1.333350999399778E+01,      /* I =  2 */
(PID.TID 0000.0001)                 1.333351905152061E+01,      /* I =  3 */
(PID.TID 0000.0001)      . . .
(PID.TID 0000.0001)                 1.334122798727485E+01,      /* I = 78 */
(PID.TID 0000.0001)                 1.334163262878608E+01,      /* I = 79 */
(PID.TID 0000.0001)                 1.334205800345858E+01,      /* I = 80 */
(PID.TID 0000.0001)                 1.334250517291117E+01,      /* I = 81 */
(PID.TID 0000.0001)                 1.334297525304664E+01,      /* I = 82 */
(PID.TID 0000.0001)                 1.334346941681953E+01,      /* I = 83 */
(PID.TID 0000.0001)      . . .
(PID.TID 0000.0001)                 1.375763007933133E+01,      /* I =158 */
(PID.TID 0000.0001)                 1.377902043582892E+01,      /* I =159 */
(PID.TID 0000.0001)                 1.380146991037092E+01,      /* I =160 */
(PID.TID 0000.0001)                 1.382502895865507E+01,      /* I =161 */
(PID.TID 0000.0001)                 1.384975023561489E+01,      /* I =162 */
(PID.TID 0000.0001)                 1.387568867003677E+01,      /* I =163 */
(PID.TID 0000.0001)      . . .
(PID.TID 0000.0001)                 2.583454622903081E+01,      /* I =238 */
(PID.TID 0000.0001)                 2.616697888049133E+01,      /* I =239 */
(PID.TID 0000.0001)                 2.650003471354386E+01,      /* I =240 */
(PID.TID 0000.0001)                 2.683329861978947E+01,      /* I =241 */
(PID.TID 0000.0001)                 2.716635445284200E+01,      /* I =242 */
(PID.TID 0000.0001)                 2.749878710430253E+01,      /* I =243 */
(PID.TID 0000.0001)      . . .
(PID.TID 0000.0001)                 3.945764466329656E+01,      /* I =318 */
(PID.TID 0000.0001)                 3.948358309771845E+01,      /* I =319 */
(PID.TID 0000.0001)                 3.950830437467826E+01       /* I =320 */
(PID.TID 0000.0001)     ;
(PID.TID 0000.0001) dxC =  /* dxC(1,:,1,:) ( units: m ) */
(PID.TID 0000.0001)                 2.642693665638726E+01       /* J =  1 */
(PID.TID 0000.0001)     ;
(PID.TID 0000.0001) dyC =  /* dyC(:,1,:,1) ( units: m ) */
(PID.TID 0000.0001)   320 @  2.000000000000000E+02              /* I =  1:320 */
(PID.TID 0000.0001)     ;
(PID.TID 0000.0001) dyC =  /* dyC(1,:,1,:) ( units: m ) */
(PID.TID 0000.0001)                 2.000000000000000E+02       /* J =  1 */
(PID.TID 0000.0001)     ;
(PID.TID 0000.0001) dxV =  /* dxV(:,1,:,1) ( units: m ) */
(PID.TID 0000.0001)                 2.642693665638726E+01,      /* I =  1 */
(PID.TID 0000.0001)                 1.333350999399778E+01,      /* I =  2 */
[...]
 cg2d: Sum(rhs),rhsMax =  -4.57760798839590E-01  7.62060252948293E-04
 cg3d: Sum(rhs),rhsMax =  -1.09427441066789E-14  1.27654093956566E-04
 cg2d: Sum(rhs),rhsMax =  -4.58131190889758E-01  7.63063656544431E-04
 cg3d: Sum(rhs),rhsMax =  -2.64122491239194E-15  1.26974704442189E-04
 cg2d: Sum(rhs),rhsMax =  -4.58446299162792E-01  7.64135851574557E-04
 cg3d: Sum(rhs),rhsMax =  -1.08911442147849E-13  1.26144549517440E-04
(PID.TID 0000.0001) // =======================================================
(PID.TID 0000.0001) // Begin OBCS MONITOR field statistics
(PID.TID 0000.0001) // =======================================================
(PID.TID 0000.0001) %MON obc_time_tsnumber            =                  4300
(PID.TID 0000.0001) %MON obc_time_secondsf            =   8.6000000000000E+04
(PID.TID 0000.0001) %MON obc_E_uVel_max               =   9.7117772813547E-03
(PID.TID 0000.0001) %MON obc_E_uVel_min               =  -1.2319271357938E-02
(PID.TID 0000.0001) %MON obc_E_uVel_mean              =  -1.6209256465505E-18
(PID.TID 0000.0001) %MON obc_E_uVel_sd                =   6.5751177116540E-03
(PID.TID 0000.0001) %MON obc_E_uVel_Int               =  -6.4837024638109E-14
(PID.TID 0000.0001) // =======================================================
(PID.TID 0000.0001) // End OBCS MONITOR field statistics
(PID.TID 0000.0001) // =======================================================
 cg2d: Sum(rhs),rhsMax =  -4.58860072504890E-01  7.65019718881776E-04
 cg3d: Sum(rhs),rhsMax =   9.34676598271511E-14  1.25178770157206E-04
 cg2d: Sum(rhs),rhsMax =  -4.59391928794759E-01  7.65682322995930E-04
 cg3d: Sum(rhs),rhsMax =  -1.21774470932326E-13  1.24087115148151E-04
 cg2d: Sum(rhs),rhsMax =  -4.60241287405406E-01  7.65791538034411E-04
 cg3d: Sum(rhs),rhsMax =  -1.91215316150406E-15  1.22878082512662E-04
 cg2d: Sum(rhs),rhsMax =  -4.61086780716946E-01  7.65883270991547E-04
 cg3d: Sum(rhs),rhsMax =   8.73604031996489E-14  1.21559280540332E-04
 cg2d: Sum(rhs),rhsMax =  -4.62057801857355E-01  7.65742841994017E-04
 cg3d: Sum(rhs),rhsMax =   1.28932536305401E-13  1.20138728218208E-04
 cg2d: Sum(rhs),rhsMax =  -4.62951731300477E-01  7.65706564641191E-04
 cg3d: Sum(rhs),rhsMax =   9.89435855296150E-14  1.18626830767946E-04
 cg2d: Sum(rhs),rhsMax =  -4.63721435003258E-01  7.65851462828473E-04
 cg3d: Sum(rhs),rhsMax =   3.92826233781146E-14  1.17573718804486E-04
 cg2d: Sum(rhs),rhsMax =  -4.64456091375884E-01  7.66029499741372E-04
 cg3d: Sum(rhs),rhsMax =  -2.78563522075614E-14  1.19324666272454E-04
 cg2d: Sum(rhs),rhsMax =  -4.64958836931422E-01  7.66564881714802E-04
 cg3d: Sum(rhs),rhsMax =  -8.06018392220803E-14  1.18909952622768E-04
 cg2d: Sum(rhs),rhsMax =  -4.65346472361360E-01  7.67264553472153E-04
 cg3d: Sum(rhs),rhsMax =  -1.90216603319221E-13  1.16747898049900E-04
 cg2d: Sum(rhs),rhsMax =  -4.65626959914485E-01  7.68115514875986E-04
 cg3d: Sum(rhs),rhsMax =   5.11408406941860E-14  1.12968446510307E-04
 cg2d: Sum(rhs),rhsMax =  -4.65925349141250E-01  7.68911703168608E-04
 cg3d: Sum(rhs),rhsMax =   1.37622281192601E-13  1.08183296587799E-04
 cg2d: Sum(rhs),rhsMax =  -4.66442075761600E-01  7.69322475536035E-04
 cg3d: Sum(rhs),rhsMax =  -3.90161373261394E-13  1.06304874920082E-04
 cg2d: Sum(rhs),rhsMax =  -4.67396131793221E-01  7.68988205933830E-04
 cg3d: Sum(rhs),rhsMax =   1.68668681452266E-13  1.05477285849369E-04
 cg2d: Sum(rhs),rhsMax =  -4.68451304054504E-01  7.68465754581933E-04
 cg3d: Sum(rhs),rhsMax =  -1.24978152826749E-14  1.06711669563999E-04
 cg2d: Sum(rhs),rhsMax =  -4.69466922857782E-01  7.67987104867643E-04
 cg3d: Sum(rhs),rhsMax =   7.04715149082991E-14  1.06979826016834E-04
 cg2d: Sum(rhs),rhsMax =  -4.70549491197142E-01  7.67378560346689E-04
 cg3d: Sum(rhs),rhsMax =  -4.23882391860364E-14  1.06451689136680E-04
 cg2d: Sum(rhs),rhsMax =  -4.71716421292222E-01  7.66613528671198E-04
 cg3d: Sum(rhs),rhsMax =   5.56266187626275E-14  1.05324015146545E-04
 cg2d: Sum(rhs),rhsMax =  -4.73157438231843E-01  7.65387209881805E-04
 cg3d: Sum(rhs),rhsMax =   9.58854306717938E-14  1.03835897286833E-04
 cg2d: Sum(rhs),rhsMax =  -4.74643081952362E-01  7.64075864678011E-04
(PID.TID 0000.0001)      cg2d_init_res =   1.04425046632438E-01
(PID.TID 0000.0001)      cg2d_iters(min,last) =      -1     194
(PID.TID 0000.0001)      cg2d_last_res =   6.00698139660003E-14
 cg3d: Sum(rhs),rhsMax =  -7.13975319838189E-14  1.02172886399338E-04
(PID.TID 0000.0001)      cg3d_init_res =   4.93597410682858E-01
(PID.TID 0000.0001)      cg3d_iters (last) =                 20
(PID.TID 0000.0001)      cg3d_last_res =   3.20451497576900E-04
(PID.TID 0000.0001) // =======================================================
(PID.TID 0000.0001) // Begin MONITOR dynamic field statistics
(PID.TID 0000.0001) // =======================================================
(PID.TID 0000.0001) %MON time_tsnumber                =                  4320
(PID.TID 0000.0001) %MON time_secondsf                =   8.6400000000000E+04
(PID.TID 0000.0001) %MON dynstat_eta_max              =   3.9349639648016E-04
(PID.TID 0000.0001) %MON dynstat_eta_min              =  -1.1802678973230E-04
(PID.TID 0000.0001) %MON dynstat_eta_mean             =   2.9721734761387E-04
(PID.TID 0000.0001) %MON dynstat_eta_sd               =   1.3503231756207E-04
(PID.TID 0000.0001) %MON dynstat_eta_del2             =   9.8034499894335E-07
(PID.TID 0000.0001) %MON dynstat_uvel_max             =   1.3202807705344E-01
(PID.TID 0000.0001) %MON dynstat_uvel_min             =  -1.2159714399906E-01
(PID.TID 0000.0001) %MON dynstat_uvel_mean            =   2.0800246115528E-07
(PID.TID 0000.0001) %MON dynstat_uvel_sd              =   1.7341103788045E-02
(PID.TID 0000.0001) %MON dynstat_uvel_del2            =   5.4247062140496E-05
(PID.TID 0000.0001) %MON dynstat_vvel_max             =   0.0000000000000E+00
(PID.TID 0000.0001) %MON dynstat_vvel_min             =   0.0000000000000E+00
(PID.TID 0000.0001) %MON dynstat_vvel_mean            =   0.0000000000000E+00
(PID.TID 0000.0001) %MON dynstat_vvel_sd              =   0.0000000000000E+00
(PID.TID 0000.0001) %MON dynstat_vvel_del2            =   0.0000000000000E+00
(PID.TID 0000.0001) %MON dynstat_wvel_max             =   5.9578960998250E-02
(PID.TID 0000.0001) %MON dynstat_wvel_min             =  -7.1726418201066E-02
(PID.TID 0000.0001) %MON dynstat_wvel_mean            =  -6.7533395759838E-05
(PID.TID 0000.0001) %MON dynstat_wvel_sd              =   7.2490728334473E-03
(PID.TID 0000.0001) %MON dynstat_wvel_del2            =   5.0644304367444E-05
(PID.TID 0000.0001) %MON dynstat_theta_max            =   6.5275187575621E-03
(PID.TID 0000.0001) %MON dynstat_theta_min            =  -7.2226643990086E-02
(PID.TID 0000.0001) %MON dynstat_theta_mean           =   2.0501389014386E-03
(PID.TID 0000.0001) %MON dynstat_theta_sd             =   9.6060422708829E-03
(PID.TID 0000.0001) %MON dynstat_theta_del2           =   2.0475778826232E-05
(PID.TID 0000.0001) %MON dynstat_salt_max             =   3.5000000000000E+01
(PID.TID 0000.0001) %MON dynstat_salt_min             =   3.5000000000000E+01
(PID.TID 0000.0001) %MON dynstat_salt_mean            =   3.5000000000000E+01
(PID.TID 0000.0001) %MON dynstat_salt_sd              =   7.7902864876265E-15
(PID.TID 0000.0001) %MON dynstat_salt_del2            =   1.0009130927013E-16
(PID.TID 0000.0001) %MON trAdv_CFL_u_max              =   1.9644301532873E-01
(PID.TID 0000.0001) %MON trAdv_CFL_v_max              =   0.0000000000000E+00
(PID.TID 0000.0001) %MON trAdv_CFL_w_max              =   4.3035850920639E-01
(PID.TID 0000.0001) %MON advcfl_uvel_max              =   1.9640253481949E-01
(PID.TID 0000.0001) %MON advcfl_vvel_max              =   0.0000000000000E+00
(PID.TID 0000.0001) %MON advcfl_wvel_max              =   4.3035850920639E-01
(PID.TID 0000.0001) %MON advcfl_W_hf_max              =   4.3035850920639E-01
(PID.TID 0000.0001) %MON pe_b_mean                    =   3.3127567584230E-09
(PID.TID 0000.0001) %MON ke_max                       =   7.6996056046888E-03
(PID.TID 0000.0001) %MON ke_mean                      =   1.7679710974370E-04
(PID.TID 0000.0001) %MON ke_vol                       =   2.0102771472217E+08
(PID.TID 0000.0001) %MON vort_r_min                   =   0.0000000000000E+00
(PID.TID 0000.0001) %MON vort_r_max                   =   0.0000000000000E+00
(PID.TID 0000.0001) %MON vort_a_mean                  =   0.0000000000000E+00
(PID.TID 0000.0001) %MON vort_a_sd                    =   0.0000000000000E+00
(PID.TID 0000.0001) %MON vort_p_mean                  =   0.0000000000000E+00
(PID.TID 0000.0001) %MON vort_p_sd                    =   0.0000000000000E+00
(PID.TID 0000.0001) %MON surfExpan_theta_mean         =  -2.2028501095892E-12
(PID.TID 0000.0001) %MON surfExpan_salt_mean          =   1.1798803776601E-18
(PID.TID 0000.0001) // =======================================================
(PID.TID 0000.0001) // End MONITOR dynamic field statistics
(PID.TID 0000.0001) // =======================================================
(PID.TID 0000.0001) // =======================================================
(PID.TID 0000.0001) // Begin OBCS MONITOR field statistics
(PID.TID 0000.0001) // =======================================================
(PID.TID 0000.0001) %MON obc_time_tsnumber            =                  4320
(PID.TID 0000.0001) %MON obc_time_secondsf            =   8.6400000000000E+04
(PID.TID 0000.0001) %MON obc_E_uVel_max               =   9.5677177013345E-03
(PID.TID 0000.0001) %MON obc_E_uVel_min               =  -1.2302678688580E-02
(PID.TID 0000.0001) %MON obc_E_uVel_mean              =  -9.1038289737765E-19
(PID.TID 0000.0001) %MON obc_E_uVel_sd                =   6.5408638659350E-03
(PID.TID 0000.0001) %MON obc_E_uVel_Int               =  -3.6415315207705E-14
(PID.TID 0000.0001) // =======================================================
(PID.TID 0000.0001) // End OBCS MONITOR field statistics
(PID.TID 0000.0001) // =======================================================
(PID.TID 0000.0001) %CHECKPOINT      4320 ckptA
(PID.TID 0000.0001)   Seconds in section "ALL                    [THE_MODEL_MAIN]":
(PID.TID 0000.0001)           User time:   125.65759091801010
(PID.TID 0000.0001)         System time:  0.95906500192359090
(PID.TID 0000.0001)     Wall clock time:   128.25815296173096
(PID.TID 0000.0001)          No. starts:           1
(PID.TID 0000.0001)           No. stops:           1
(PID.TID 0000.0001)   Seconds in section "INITIALISE_FIXED       [THE_MODEL_MAIN]":
(PID.TID 0000.0001)           User time:  0.15831999387592077
(PID.TID 0000.0001)         System time:   2.3593000136315823E-002
(PID.TID 0000.0001)     Wall clock time:  0.18250393867492676
(PID.TID 0000.0001)          No. starts:           1
(PID.TID 0000.0001)           No. stops:           1
(PID.TID 0000.0001)   Seconds in section "THE_MAIN_LOOP          [THE_MODEL_MAIN]":
(PID.TID 0000.0001)           User time:   125.49501797556877
(PID.TID 0000.0001)         System time:  0.93445897474884987
(PID.TID 0000.0001)     Wall clock time:   128.07039499282837
(PID.TID 0000.0001)          No. starts:           1
(PID.TID 0000.0001)           No. stops:           1
(PID.TID 0000.0001)   Seconds in section "INITIALISE_VARIA    [THE_MAIN_LOOP]":
(PID.TID 0000.0001)           User time:   1.0441005229949951E-002
(PID.TID 0000.0001)         System time:   1.1159999296069145E-002
(PID.TID 0000.0001)     Wall clock time:   2.1672010421752930E-002
(PID.TID 0000.0001)          No. starts:           1
(PID.TID 0000.0001)           No. stops:           1
(PID.TID 0000.0001)   Seconds in section "MAIN LOOP           [THE_MAIN_LOOP]":
(PID.TID 0000.0001)           User time:   125.48456697165966
(PID.TID 0000.0001)         System time:  0.92329697310924530
(PID.TID 0000.0001)     Wall clock time:   128.04870796203613
(PID.TID 0000.0001)          No. starts:           1
(PID.TID 0000.0001)           No. stops:           1
(PID.TID 0000.0001)   Seconds in section "MAIN_DO_LOOP        [THE_MAIN_LOOP]":
(PID.TID 0000.0001)           User time:   125.46310612559319
(PID.TID 0000.0001)         System time:  0.92291903868317604
(PID.TID 0000.0001)     Wall clock time:   128.02694988250732
(PID.TID 0000.0001)          No. starts:        4320
(PID.TID 0000.0001)           No. stops:        4320
(PID.TID 0000.0001)   Seconds in section "FORWARD_STEP        [MAIN_DO_LOOP]":
(PID.TID 0000.0001)           User time:   125.41911903023720
(PID.TID 0000.0001)         System time:  0.92198301851749420
(PID.TID 0000.0001)     Wall clock time:   127.97996115684509
(PID.TID 0000.0001)          No. starts:        4320
(PID.TID 0000.0001)           No. stops:        4320
(PID.TID 0000.0001)   Seconds in section "LOAD_FIELDS_DRIVER  [FORWARD_STEP]":
(PID.TID 0000.0001)           User time:   7.7242925763130188E-002
(PID.TID 0000.0001)         System time:   1.3299994170665741E-003
(PID.TID 0000.0001)     Wall clock time:   7.8759670257568359E-002
(PID.TID 0000.0001)          No. starts:        4320
(PID.TID 0000.0001)           No. stops:        4320
(PID.TID 0000.0001)   Seconds in section "EXTERNAL_FLDS_LOAD [LOAD_FLDS_DRIVER]":
(PID.TID 0000.0001)           User time:   2.2046640515327454E-002
(PID.TID 0000.0001)         System time:   4.5794621109962463E-004
(PID.TID 0000.0001)     Wall clock time:   2.2499084472656250E-002
(PID.TID 0000.0001)          No. starts:        4320
(PID.TID 0000.0001)           No. stops:        4320
(PID.TID 0000.0001)   Seconds in section "DO_ATMOSPHERIC_PHYS [FORWARD_STEP]":
(PID.TID 0000.0001)           User time:   2.0867869257926941E-002
(PID.TID 0000.0001)         System time:   5.1512941718101501E-004
(PID.TID 0000.0001)     Wall clock time:   2.1501541137695312E-002
(PID.TID 0000.0001)          No. starts:        4320
(PID.TID 0000.0001)           No. stops:        4320
(PID.TID 0000.0001)   Seconds in section "DO_OCEANIC_PHYS     [FORWARD_STEP]":
(PID.TID 0000.0001)           User time:   3.2776641696691513
(PID.TID 0000.0001)         System time:   7.5594045221805573E-002
(PID.TID 0000.0001)     Wall clock time:   3.4129917621612549
(PID.TID 0000.0001)          No. starts:        4320
(PID.TID 0000.0001)           No. stops:        4320
(PID.TID 0000.0001)   Seconds in section "DYNAMICS            [FORWARD_STEP]":
(PID.TID 0000.0001)           User time:   36.791634246706963
(PID.TID 0000.0001)         System time:  0.18277514353394508
(PID.TID 0000.0001)     Wall clock time:   37.398879051208496
(PID.TID 0000.0001)          No. starts:        4320
(PID.TID 0000.0001)           No. stops:        4320
(PID.TID 0000.0001)   Seconds in section "CALC_GW          [DYNAMICS]":
(PID.TID 0000.0001)           User time:   7.9481030851602554
(PID.TID 0000.0001)         System time:   4.6151552349328995E-002
(PID.TID 0000.0001)     Wall clock time:   8.0850360393524170
(PID.TID 0000.0001)          No. starts:        4320
(PID.TID 0000.0001)           No. stops:        4320
(PID.TID 0000.0001)   Seconds in section "SOLVE_FOR_PRESSURE  [FORWARD_STEP]":
(PID.TID 0000.0001)           User time:   28.775583252310753
(PID.TID 0000.0001)         System time:  0.17548378929495811
(PID.TID 0000.0001)     Wall clock time:   29.399397373199463
(PID.TID 0000.0001)          No. starts:        4320
(PID.TID 0000.0001)           No. stops:        4320
(PID.TID 0000.0001)   Seconds in section "CG3D   [SOLVE_FOR_PRESSURE]":
(PID.TID 0000.0001)           User time:   24.507715642452240
(PID.TID 0000.0001)         System time:  0.13567491620779037
(PID.TID 0000.0001)     Wall clock time:   25.038203239440918
(PID.TID 0000.0001)          No. starts:        4320
(PID.TID 0000.0001)           No. stops:        4320
(PID.TID 0000.0001)   Seconds in section "MOM_CORRECTION_STEP [FORWARD_STEP]":
(PID.TID 0000.0001)           User time:   3.5001199096441269
(PID.TID 0000.0001)         System time:   4.4370796531438828E-002
(PID.TID 0000.0001)     Wall clock time:   3.6045978069305420
(PID.TID 0000.0001)          No. starts:        4320
(PID.TID 0000.0001)           No. stops:        4320
(PID.TID 0000.0001)   Seconds in section "INTEGR_CONTINUITY   [FORWARD_STEP]":
(PID.TID 0000.0001)           User time:  0.97346347570419312
(PID.TID 0000.0001)         System time:   8.8529512286186218E-003
(PID.TID 0000.0001)     Wall clock time:  0.99993038177490234
(PID.TID 0000.0001)          No. starts:        4320
(PID.TID 0000.0001)           No. stops:        4320
(PID.TID 0000.0001)   Seconds in section "BLOCKING_EXCHANGES  [FORWARD_STEP]":
(PID.TID 0000.0001)           User time:   3.9818722158670425
(PID.TID 0000.0001)         System time:   3.7988018244504929E-002
(PID.TID 0000.0001)     Wall clock time:   4.0915086269378662
(PID.TID 0000.0001)          No. starts:        8640
(PID.TID 0000.0001)           No. stops:        8640
(PID.TID 0000.0001)   Seconds in section "THERMODYNAMICS      [FORWARD_STEP]":
(PID.TID 0000.0001)           User time:   45.892781659960747
(PID.TID 0000.0001)         System time:  0.21548702567815781
(PID.TID 0000.0001)     Wall clock time:   46.688343048095703
(PID.TID 0000.0001)          No. starts:        4320
(PID.TID 0000.0001)           No. stops:        4320
(PID.TID 0000.0001)   Seconds in section "TRC_CORRECTION_STEP [FORWARD_STEP]":
(PID.TID 0000.0001)           User time:   2.3087680339813232E-002
(PID.TID 0000.0001)         System time:   3.5294145345687866E-004
(PID.TID 0000.0001)     Wall clock time:   2.3632049560546875E-002
(PID.TID 0000.0001)          No. starts:        4320
(PID.TID 0000.0001)           No. stops:        4320
(PID.TID 0000.0001)   Seconds in section "MONITOR             [FORWARD_STEP]":
(PID.TID 0000.0001)           User time:  0.26804514229297638
(PID.TID 0000.0001)         System time:   8.4049552679061890E-003
(PID.TID 0000.0001)     Wall clock time:  0.28046584129333496
(PID.TID 0000.0001)          No. starts:        4320
(PID.TID 0000.0001)           No. stops:        4320
(PID.TID 0000.0001)   Seconds in section "DO_THE_MODEL_IO     [FORWARD_STEP]":
(PID.TID 0000.0001)           User time:   1.4160748422145844
(PID.TID 0000.0001)         System time:  0.16227305680513382
(PID.TID 0000.0001)     Wall clock time:   1.5988702774047852
(PID.TID 0000.0001)          No. starts:        4320
(PID.TID 0000.0001)           No. stops:        4320
(PID.TID 0000.0001)   Seconds in section "DO_WRITE_PICKUP     [FORWARD_STEP]":
(PID.TID 0000.0001)           User time:   2.2076785564422607E-002
(PID.TID 0000.0001)         System time:   1.3197213411331177E-003
(PID.TID 0000.0001)     Wall clock time:   2.3392677307128906E-002
(PID.TID 0000.0001)          No. starts:        4320
(PID.TID 0000.0001)           No. stops:        4320
(PID.TID 0000.0001) // ======================================================
(PID.TID 0000.0001) // Tile <-> Tile communication statistics
(PID.TID 0000.0001) // ======================================================
(PID.TID 0000.0001) // o Tile number: 000001
(PID.TID 0000.0001) //         No. X exchanges =              0
(PID.TID 0000.0001) //            Max. X spins =              0
(PID.TID 0000.0001) //            Min. X spins =     1000000000
(PID.TID 0000.0001) //          Total. X spins =              0
(PID.TID 0000.0001) //            Avg. X spins =       0.00E+00
(PID.TID 0000.0001) //         No. Y exchanges =              0
(PID.TID 0000.0001) //            Max. Y spins =              0
(PID.TID 0000.0001) //            Min. Y spins =     1000000000
(PID.TID 0000.0001) //          Total. Y spins =              0
(PID.TID 0000.0001) //            Avg. Y spins =       0.00E+00
(PID.TID 0000.0001) // o Thread number: 000001
(PID.TID 0000.0001) //            No. barriers =        5640454
(PID.TID 0000.0001) //      Max. barrier spins =              1
(PID.TID 0000.0001) //      Min. barrier spins =              1
(PID.TID 0000.0001) //     Total barrier spins =        5640454
(PID.TID 0000.0001) //      Avg. barrier spins =       1.00E+00
PROGRAM MAIN: Execution ended Normally
